CHEMBL296468
     RDKit          2D

 25 27  0  0  0  0  0  0  0  0999 V2000
    7.4557  -13.2052    0.0000 C   0  0  0  0  0  0  0  0  0  0  0  0
    8.7547  -12.4552    0.0000 C   0  0  0  0  0  0  0  0  0  0  0  0
   10.0538  -11.7052    0.0000 C   0  0  0  0  0  0  0  0  0  0  0  0
    9.5047  -13.7542    0.0000 C   0  0  0  0  0  0  0  0  0  0  0  0
    8.0047  -11.1562    0.0000 C   0  0  0  0  0  0  0  0  0  0  0  0
    8.6148   -9.7859    0.0000 C   0  0  0  0  0  0  0  0  0  0  0  0
    7.5001   -8.7822    0.0000 N   0  0  0  0  0  0  0  0  0  0  0  0
    6.2011   -9.5322    0.0000 C   0  0  0  0  0  0  0  0  0  0  0  0
    4.8308   -8.9221    0.0000 C   0  0  0  0  0  0  0  0  0  0  0  0
    4.6740   -7.4303    0.0000 S   0  0  0  0  0  0  0  0  0  0  0  0
    3.3037   -6.8202    0.0000 C   0  0  0  0  0  0  0  0  0  0  0  0
    2.0046   -7.5702    0.0000 C   0  0  0  0  0  0  0  0  0  0  0  0
    0.8899   -6.5665    0.0000 N   0  0  0  0  0  0  0  0  0  0  0  0
    1.5000   -5.1962    0.0000 C   0  0  0  0  0  0  0  0  0  0  0  0
    0.7500   -3.8971    0.0000 N   0  0  0  0  0  0  0  0  0  0  0  0
    1.5000   -2.5981    0.0000 C   0  0  0  0  0  0  0  0  0  0  0  0
    3.0000   -2.5981    0.0000 O   0  0  0  0  0  0  0  0  0  0  0  0
    0.7500   -1.2990    0.0000 C   0  0  0  0  0  0  0  0  0  0  0  0
    1.5000    0.0000    0.0000 C   0  0  0  0  0  0  0  0  0  0  0  0
    0.7500    1.2990    0.0000 C   0  0  0  0  0  0  0  0  0  0  0  0
   -0.7500    1.2990    0.0000 N   0  0  0  0  0  0  0  0  0  0  0  0
   -1.5000    0.0000    0.0000 C   0  0  0  0  0  0  0  0  0  0  0  0
   -0.7500   -1.2990    0.0000 C   0  0  0  0  0  0  0  0  0  0  0  0
    2.9918   -5.3529    0.0000 S   0  0  0  0  0  0  0  0  0  0  0  0
    6.5129  -10.9994    0.0000 O   0  0  0  0  0  0  0  0  0  0  0  0
  1  2  1  0
  2  3  1  0
  2  4  1  0
  2  5  1  0
  5  6  2  0
  6  7  1  0
  7  8  2  0
  8  9  1  0
  9 10  1  0
 10 11  1  0
 11 12  2  0
 12 13  1  0
 13 14  2  0
 14 15  1  0
 15 16  1  0
 16 17  2  0
 16 18  1  0
 18 19  1  0
 19 20  1  0
 20 21  1  0
 21 22  1  0
 22 23  1  0
 14 24  1  0
  8 25  1  0
 25  5  1  0
 24 11  1  0
 23 18  1  0
M  END
>  <Molecule ChEMBL ID>  (1) 
CHEMBL296468

>  <Standard Type>  (1) 
Kd

>  <activity>  (1) 
200

>  <Standard Units>  (1) 
nM

>  <activity_sd>  (1) 
0

>  <p_activity>  (1) 
6.699

$$$$
CHEMBL535
     RDKit          2D

 29 31  0  0  0  0  0  0  0  0999 V2000
  -12.9041   -9.3825    0.0000 C   0  0  0  0  0  0  0  0  0  0  0  0
  -11.7894   -8.3788    0.0000 C   0  0  0  0  0  0  0  0  0  0  0  0
  -10.3628   -8.8423    0.0000 N   0  0  0  0  0  0  0  0  0  0  0  0
  -10.0510  -10.3095    0.0000 C   0  0  0  0  0  0  0  0  0  0  0  0
  -11.1657  -11.3132    0.0000 C   0  0  0  0  0  0  0  0  0  0  0  0
   -9.2481   -7.8386    0.0000 C   0  0  0  0  0  0  0  0  0  0  0  0
   -7.8215   -8.3021    0.0000 C   0  0  0  0  0  0  0  0  0  0  0  0
   -6.7068   -7.2984    0.0000 N   0  0  0  0  0  0  0  0  0  0  0  0
   -5.2802   -7.7620    0.0000 C   0  0  0  0  0  0  0  0  0  0  0  0
   -4.9684   -9.2292    0.0000 O   0  0  0  0  0  0  0  0  0  0  0  0
   -4.1655   -6.7583    0.0000 C   0  0  0  0  0  0  0  0  0  0  0  0
   -2.6983   -7.0701    0.0000 C   0  0  0  0  0  0  0  0  0  0  0  0
   -2.0882   -8.4404    0.0000 C   0  0  0  0  0  0  0  0  0  0  0  0
   -1.9483   -5.7711    0.0000 N   0  0  0  0  0  0  0  0  0  0  0  0
   -2.9520   -4.6564    0.0000 C   0  0  0  0  0  0  0  0  0  0  0  0
   -2.6401   -3.1891    0.0000 C   0  0  0  0  0  0  0  0  0  0  0  0
   -1.2135   -2.7256    0.0000 C   0  0  0  0  0  0  0  0  0  0  0  0
   -0.0000   -3.6073    0.0000 C   0  0  0  0  0  0  0  0  0  0  0  0
    0.0000   -5.1073    0.0000 O   0  0  0  0  0  0  0  0  0  0  0  0
    1.2135   -2.7256    0.0000 N   0  0  0  0  0  0  0  0  0  0  0  0
    0.7500   -1.2990    0.0000 C   0  0  0  0  0  0  0  0  0  0  0  0
    1.5000    0.0000    0.0000 C   0  0  0  0  0  0  0  0  0  0  0  0
    0.7500    1.2990    0.0000 C   0  0  0  0  0  0  0  0  0  0  0  0
   -0.7500    1.2990    0.0000 C   0  0  0  0  0  0  0  0  0  0  0  0
   -1.5000    2.5981    0.0000 F   0  0  0  0  0  0  0  0  0  0  0  0
   -1.5000    0.0000    0.0000 C   0  0  0  0  0  0  0  0  0  0  0  0
   -0.7500   -1.2990    0.0000 C   0  0  0  0  0  0  0  0  0  0  0  0
   -4.3223   -5.2665    0.0000 C   0  0  0  0  0  0  0  0  0  0  0  0
   -5.6213   -4.5165    0.0000 C   0  0  0  0  0  0  0  0  0  0  0  0
  1  2  1  0
  2  3  1  0
  3  4  1  0
  4  5  1  0
  3  6  1  0
  6  7  1  0
  7  8  1  0
  8  9  1  0
  9 10  2  0
  9 11  1  0
 11 12  2  0
 12 13  1  0
 12 14  1  0
 14 15  1  0
 15 16  1  0
 16 17  2  0
 17 18  1  0
 18 19  2  0
 18 20  1  0
 20 21  1  0
 21 22  2  0
 22 23  1  0
 23 24  2  0
 24 25  1  0
 24 26  1  0
 26 27  2  0
 15 28  2  0
 28 29  1  0
 28 11  1  0
 27 17  1  0
 27 21  1  0
M  END
>  <Molecule ChEMBL ID>  (2) 
CHEMBL535

>  <Standard Type>  (2) 
Kd

>  <activity>  (2) 
2300

>  <Standard Units>  (2) 
nM

>  <activity_sd>  (2) 
0

>  <p_activity>  (2) 
5.638

$$$$
CHEMBL408982
     RDKit          2D

 17 18  0  0  0  0  0  0  0  0999 V2000
   -3.7548   -2.1855    0.0000 C   0  0  0  0  0  0  0  0  0  0  0  0
   -2.6401   -3.1891    0.0000 C   0  0  0  0  0  0  0  0  0  0  0  0
   -1.2135   -2.7256    0.0000 N   0  0  0  0  0  0  0  0  0  0  0  0
   -0.0000   -3.6073    0.0000 C   0  0  0  0  0  0  0  0  0  0  0  0
   -0.0000   -5.1073    0.0000 C   0  0  0  0  0  0  0  0  0  0  0  0
    1.2990   -5.8573    0.0000 C   0  0  0  0  0  0  0  0  0  0  0  0
    1.2990   -7.3573    0.0000 C   0  0  0  0  0  0  0  0  0  0  0  0
    2.5981   -5.1073    0.0000 O   0  0  0  0  0  0  0  0  0  0  0  0
    1.2135   -2.7256    0.0000 S   0  0  0  0  0  0  0  0  0  0  0  0
    0.7500   -1.2990    0.0000 C   0  0  0  0  0  0  0  0  0  0  0  0
    1.5000    0.0000    0.0000 C   0  0  0  0  0  0  0  0  0  0  0  0
    0.7500    1.2990    0.0000 C   0  0  0  0  0  0  0  0  0  0  0  0
   -0.7500    1.2990    0.0000 C   0  0  0  0  0  0  0  0  0  0  0  0
   -1.5000    2.5981    0.0000 O   0  0  0  0  0  0  0  0  0  0  0  0
   -0.7500    3.8971    0.0000 C   0  0  0  0  0  0  0  0  0  0  0  0
   -1.5000    0.0000    0.0000 C   0  0  0  0  0  0  0  0  0  0  0  0
   -0.7500   -1.2990    0.0000 C   0  0  0  0  0  0  0  0  0  0  0  0
  1  2  1  0
  2  3  1  0
  3  4  1  0
  4  5  2  0
  5  6  1  0
  6  7  1  0
  6  8  2  0
  4  9  1  0
  9 10  1  0
 10 11  2  0
 11 12  1  0
 12 13  2  0
 13 14  1  0
 14 15  1  0
 13 16  1  0
 16 17  2  0
 17  3  1  0
 17 10  1  0
M  END
>  <Molecule ChEMBL ID>  (3) 
CHEMBL408982

>  <Standard Type>  (3) 
Kd

>  <activity>  (3) 
130

>  <Standard Units>  (3) 
nM

>  <activity_sd>  (3) 
NA

>  <p_activity>  (3) 
6.886

$$$$
CHEMBL1349996
     RDKit          2D

 17 18  0  0  0  0  0  0  0  0999 V2000
   -3.7548   -2.1855    0.0000 C   0  0  0  0  0  0  0  0  0  0  0  0
   -2.6401   -3.1891    0.0000 C   0  0  0  0  0  0  0  0  0  0  0  0
   -1.2135   -2.7256    0.0000 N   0  0  0  0  0  0  0  0  0  0  0  0
   -0.0000   -3.6073    0.0000 C   0  0  0  0  0  0  0  0  0  0  0  0
   -0.0000   -5.1073    0.0000 C   0  0  0  0  0  0  0  0  0  0  0  0
   -1.2990   -5.8573    0.0000 C   0  0  0  0  0  0  0  0  0  0  0  0
   -1.2990   -7.3573    0.0000 C   0  0  0  0  0  0  0  0  0  0  0  0
   -2.5981   -5.1073    0.0000 O   0  0  0  0  0  0  0  0  0  0  0  0
    1.2135   -2.7256    0.0000 S   0  0  0  0  0  0  0  0  0  0  0  0
    0.7500   -1.2990    0.0000 C   0  0  0  0  0  0  0  0  0  0  0  0
    1.5000    0.0000    0.0000 C   0  0  0  0  0  0  0  0  0  0  0  0
    0.7500    1.2990    0.0000 C   0  0  0  0  0  0  0  0  0  0  0  0
   -0.7500    1.2990    0.0000 C   0  0  0  0  0  0  0  0  0  0  0  0
   -1.5000    2.5981    0.0000 O   0  0  0  0  0  0  0  0  0  0  0  0
   -0.7500    3.8971    0.0000 C   0  0  0  0  0  0  0  0  0  0  0  0
   -1.5000    0.0000    0.0000 C   0  0  0  0  0  0  0  0  0  0  0  0
   -0.7500   -1.2990    0.0000 C   0  0  0  0  0  0  0  0  0  0  0  0
  1  2  1  0
  2  3  1  0
  3  4  1  0
  4  5  2  0
  5  6  1  0
  6  7  1  0
  6  8  2  0
  4  9  1  0
  9 10  1  0
 10 11  2  0
 11 12  1  0
 12 13  2  0
 13 14  1  0
 14 15  1  0
 13 16  1  0
 16 17  2  0
 17  3  1  0
 17 10  1  0
M  END
>  <Molecule ChEMBL ID>  (4) 
CHEMBL1349996

>  <Standard Type>  (4) 
Kd

>  <activity>  (4) 
100

>  <Standard Units>  (4) 
nM

>  <activity_sd>  (4) 
NA

>  <p_activity>  (4) 
7

$$$$
CHEMBL607707
     RDKit          2D

 33 35  0  0  0  0  0  0  0  0999 V2000
    5.2500   -1.2990    0.0000 C   0  0  0  0  0  0  0  0  0  0  0  0
    3.7500   -1.2990    0.0000 C   0  0  0  0  0  0  0  0  0  0  0  0
    3.0000    0.0000    0.0000 O   0  0  0  0  0  0  0  0  0  0  0  0
    1.5000    0.0000    0.0000 C   0  0  0  0  0  0  0  0  0  0  0  0
    0.7500   -1.2990    0.0000 C   0  0  0  0  0  0  0  0  0  0  0  0
   -0.7500   -1.2990    0.0000 C   0  0  0  0  0  0  0  0  0  0  0  0
   -1.5000   -2.5981    0.0000 N   0  0  0  0  0  0  0  0  0  0  0  0
   -3.0000   -2.5981    0.0000 C   0  0  0  0  0  0  0  0  0  0  0  0
   -3.7500   -1.2990    0.0000 C   0  0  0  0  0  0  0  0  0  0  0  0
   -5.2500   -1.2990    0.0000 C   0  0  0  0  0  0  0  0  0  0  0  0
   -6.7500   -1.2990    0.0000 N   0  0  0  0  0  0  0  0  0  0  0  0
   -3.0000    0.0000    0.0000 C   0  0  0  0  0  0  0  0  0  0  0  0
   -3.7500    1.2990    0.0000 N   0  0  0  0  0  0  0  0  0  0  0  0
   -3.0000    2.5981    0.0000 C   0  0  0  0  0  0  0  0  0  0  0  0
   -1.5000    2.5981    0.0000 C   0  0  0  0  0  0  0  0  0  0  0  0
   -0.7500    3.8971    0.0000 C   0  0  0  0  0  0  0  0  0  0  0  0
   -1.5000    5.1962    0.0000 C   0  0  0  0  0  0  0  0  0  0  0  0
   -0.7500    6.4952    0.0000 F   0  0  0  0  0  0  0  0  0  0  0  0
   -3.0000    5.1962    0.0000 C   0  0  0  0  0  0  0  0  0  0  0  0
   -3.7500    6.4952    0.0000 Cl  0  0  0  0  0  0  0  0  0  0  0  0
   -3.7500    3.8971    0.0000 C   0  0  0  0  0  0  0  0  0  0  0  0
   -1.5000    0.0000    0.0000 C   0  0  0  0  0  0  0  0  0  0  0  0
   -0.7500    1.2990    0.0000 C   0  0  0  0  0  0  0  0  0  0  0  0
    0.7500    1.2990    0.0000 C   0  0  0  0  0  0  0  0  0  0  0  0
    1.5000    2.5981    0.0000 N   0  0  0  0  0  0  0  0  0  0  0  0
    3.0000    2.5981    0.0000 C   0  0  0  0  0  0  0  0  0  0  0  0
    3.7500    1.2990    0.0000 O   0  0  0  0  0  0  0  0  0  0  0  0
    3.7500    3.8971    0.0000 C   0  0  0  0  0  0  0  0  0  0  0  0
    5.2500    3.8971    0.0000 C   0  0  0  0  0  0  0  0  0  0  0  0
    6.0000    5.1962    0.0000 C   0  0  0  0  0  0  0  0  0  0  0  0
    7.5000    5.1962    0.0000 N   0  0  0  0  0  0  0  0  0  0  0  0
    8.2500    6.4952    0.0000 C   0  0  0  0  0  0  0  0  0  0  0  0
    8.2500    3.8971    0.0000 C   0  0  0  0  0  0  0  0  0  0  0  0
  1  2  1  0
  2  3  1  0
  3  4  1  0
  4  5  2  0
  5  6  1  0
  6  7  2  0
  7  8  1  0
  8  9  2  0
  9 10  1  0
 10 11  3  0
  9 12  1  0
 12 13  1  0
 13 14  1  0
 14 15  2  0
 15 16  1  0
 16 17  2  0
 17 18  1  0
 17 19  1  0
 19 20  1  0
 19 21  2  0
 12 22  2  0
 22 23  1  0
 23 24  2  0
 24 25  1  0
 25 26  1  0
 26 27  2  0
 26 28  1  0
 28 29  2  0
 29 30  1  0
 30 31  1  0
 31 32  1  0
 31 33  1  0
 24  4  1  0
 22  6  1  0
 21 14  1  0
M  END
>  <Molecule ChEMBL ID>  (5) 
CHEMBL607707

>  <Standard Type>  (5) 
Kd

>  <activity>  (5) 
4000

>  <Standard Units>  (5) 
nM

>  <activity_sd>  (5) 
NA

>  <p_activity>  (5) 
5.398

$$$$
CHEMBL14762
     RDKit          2D

 26 28  0  0  0  0  0  0  0  0999 V2000
   -3.4408    8.1628    0.0000 C   0  0  0  0  0  0  0  0  0  0  0  0
   -3.7527    6.6955    0.0000 C   0  0  0  0  0  0  0  0  0  0  0  0
   -2.6380    5.6918    0.0000 C   0  0  0  0  0  0  0  0  0  0  0  0
   -1.2114    6.1554    0.0000 C   0  0  0  0  0  0  0  0  0  0  0  0
   -0.8995    7.6226    0.0000 O   0  0  0  0  0  0  0  0  0  0  0  0
   -2.9499    4.2246    0.0000 N   0  0  0  0  0  0  0  0  0  0  0  0
   -1.8351    3.2209    0.0000 C   0  0  0  0  0  0  0  0  0  0  0  0
   -0.4086    3.6844    0.0000 N   0  0  0  0  0  0  0  0  0  0  0  0
    0.7062    2.6807    0.0000 C   0  0  0  0  0  0  0  0  0  0  0  0
    2.1328    3.1443    0.0000 N   0  0  0  0  0  0  0  0  0  0  0  0
    2.4446    4.6115    0.0000 C   0  0  0  0  0  0  0  0  0  0  0  0
    3.8712    5.0750    0.0000 C   0  0  0  0  0  0  0  0  0  0  0  0
    4.9859    4.0713    0.0000 C   0  0  0  0  0  0  0  0  0  0  0  0
    6.4125    4.5348    0.0000 C   0  0  0  0  0  0  0  0  0  0  0  0
    6.7244    6.0021    0.0000 C   0  0  0  0  0  0  0  0  0  0  0  0
    5.6097    7.0058    0.0000 C   0  0  0  0  0  0  0  0  0  0  0  0
    4.1831    6.5422    0.0000 C   0  0  0  0  0  0  0  0  0  0  0  0
    0.3943    1.2135    0.0000 C   0  0  0  0  0  0  0  0  0  0  0  0
    1.2760    0.0000    0.0000 N   0  0  0  0  0  0  0  0  0  0  0  0
    0.3943   -1.2135    0.0000 C   0  0  0  0  0  0  0  0  0  0  0  0
   -1.0323   -0.7500    0.0000 N   0  0  0  0  0  0  0  0  0  0  0  0
   -2.2458   -1.6317    0.0000 C   0  0  0  0  0  0  0  0  0  0  0  0
   -2.0890   -3.1235    0.0000 C   0  0  0  0  0  0  0  0  0  0  0  0
   -3.6161   -1.0216    0.0000 C   0  0  0  0  0  0  0  0  0  0  0  0
   -1.0323    0.7500    0.0000 C   0  0  0  0  0  0  0  0  0  0  0  0
   -2.1470    1.7537    0.0000 N   0  0  0  0  0  0  0  0  0  0  0  0
  1  2  1  0
  3  2  1  6
  3  4  1  0
  4  5  1  0
  3  6  1  0
  6  7  1  0
  7  8  2  0
  8  9  1  0
  9 10  1  0
 10 11  1  0
 11 12  1  0
 12 13  2  0
 13 14  1  0
 14 15  2  0
 15 16  1  0
 16 17  2  0
  9 18  2  0
 18 19  1  0
 19 20  2  0
 20 21  1  0
 21 22  1  0
 22 23  1  0
 22 24  1  0
 21 25  1  0
 25 26  2  0
 26  7  1  0
 17 12  1  0
 25 18  1  0
M  END
>  <Molecule ChEMBL ID>  (6) 
CHEMBL14762

>  <Standard Type>  (6) 
Kd

>  <activity>  (6) 
1100

>  <Standard Units>  (6) 
nM

>  <activity_sd>  (6) 
0

>  <p_activity>  (6) 
5.959

$$$$
CHEMBL1173655
     RDKit          2D

 34 37  0  0  0  0  0  0  0  0999 V2000
  -10.5000   -7.7942    0.0000 C   0  0  0  0  0  0  0  0  0  0  0  0
   -9.7500   -6.4952    0.0000 N   0  0  0  0  0  0  0  0  0  0  0  0
  -10.5000   -5.1962    0.0000 C   0  0  0  0  0  0  0  0  0  0  0  0
   -8.2500   -6.4952    0.0000 C   0  0  0  0  0  0  0  0  0  0  0  0
   -7.5000   -5.1962    0.0000 C   0  0  0  0  0  0  0  0  0  0  0  0
   -6.0000   -5.1962    0.0000 C   0  0  0  0  0  0  0  0  0  0  0  0
   -5.2500   -3.8971    0.0000 C   0  0  0  0  0  0  0  0  0  0  0  0
   -6.0000   -2.5981    0.0000 O   0  0  0  0  0  0  0  0  0  0  0  0
   -3.7500   -3.8971    0.0000 N   0  0  0  0  0  0  0  0  0  0  0  0
   -3.0000   -2.5981    0.0000 C   0  0  0  0  0  0  0  0  0  0  0  0
   -1.5000   -2.5981    0.0000 C   0  0  0  0  0  0  0  0  0  0  0  0
   -0.7500   -1.2990    0.0000 C   0  0  0  0  0  0  0  0  0  0  0  0
    0.7500   -1.2990    0.0000 C   0  0  0  0  0  0  0  0  0  0  0  0
    1.5000   -2.5981    0.0000 N   0  0  0  0  0  0  0  0  0  0  0  0
    3.0000   -2.5981    0.0000 C   0  0  0  0  0  0  0  0  0  0  0  0
    3.7500   -3.8971    0.0000 C   0  0  0  0  0  0  0  0  0  0  0  0
    5.2500   -3.8971    0.0000 C   0  0  0  0  0  0  0  0  0  0  0  0
    6.0000   -2.5981    0.0000 C   0  0  0  0  0  0  0  0  0  0  0  0
    7.5000   -2.5981    0.0000 F   0  0  0  0  0  0  0  0  0  0  0  0
    5.2500   -1.2990    0.0000 C   0  0  0  0  0  0  0  0  0  0  0  0
    6.0000   -0.0000    0.0000 Cl  0  0  0  0  0  0  0  0  0  0  0  0
    3.7500   -1.2990    0.0000 C   0  0  0  0  0  0  0  0  0  0  0  0
    1.5000    0.0000    0.0000 N   0  0  0  0  0  0  0  0  0  0  0  0
    0.7500    1.2990    0.0000 C   0  0  0  0  0  0  0  0  0  0  0  0
   -0.7500    1.2990    0.0000 N   0  0  0  0  0  0  0  0  0  0  0  0
   -1.5000    0.0000    0.0000 C   0  0  0  0  0  0  0  0  0  0  0  0
   -3.0000    0.0000    0.0000 C   0  0  0  0  0  0  0  0  0  0  0  0
   -3.7500   -1.2990    0.0000 C   0  0  0  0  0  0  0  0  0  0  0  0
   -5.2500   -1.2990    0.0000 O   0  0  0  0  0  0  0  0  0  0  0  0
   -6.0000    0.0000    0.0000 C   0  0  0  0  0  0  0  0  0  0  0  0
   -7.4918    0.1568    0.0000 C   0  0  0  0  0  0  0  0  0  0  0  0
   -7.8037    1.6240    0.0000 C   0  0  0  0  0  0  0  0  0  0  0  0
   -6.5046    2.3740    0.0000 O   0  0  0  0  0  0  0  0  0  0  0  0
   -5.3899    1.3703    0.0000 C   0  0  0  0  0  0  0  0  0  0  0  0
  1  2  1  0
  2  3  1  0
  2  4  1  0
  4  5  1  0
  5  6  2  0
  6  7  1  0
  7  8  2  0
  7  9  1  0
  9 10  1  0
 10 11  2  0
 11 12  1  0
 12 13  2  0
 13 14  1  0
 14 15  1  0
 15 16  2  0
 16 17  1  0
 17 18  2  0
 18 19  1  0
 18 20  1  0
 20 21  1  0
 20 22  2  0
 13 23  1  0
 23 24  2  0
 24 25  1  0
 25 26  2  0
 26 27  1  0
 27 28  2  0
 28 29  1  0
 30 29  1  1
 30 31  1  0
 31 32  1  0
 32 33  1  0
 33 34  1  0
 28 10  1  0
 34 30  1  0
 26 12  1  0
 22 15  1  0
M  END
>  <Molecule ChEMBL ID>  (7) 
CHEMBL1173655

>  <Standard Type>  (7) 
Kd

>  <activity>  (7) 
2800

>  <Standard Units>  (7) 
nM

>  <activity_sd>  (7) 
NA

>  <p_activity>  (7) 
5.553

$$$$
CHEMBL91829
     RDKit          2D

 35 40  0  0  0  0  0  0  0  0999 V2000
   -7.4799   -6.0803    0.0000 C   0  0  0  0  0  0  0  0  0  0  0  0
   -6.0175   -5.7465    0.0000 N   0  0  0  0  0  0  0  0  0  0  0  0
   -5.5753   -4.3132    0.0000 C   0  0  0  0  0  0  0  0  0  0  0  0
   -4.9972   -6.8461    0.0000 C   0  0  0  0  0  0  0  0  0  0  0  0
   -3.5348   -6.5123    0.0000 C   0  0  0  0  0  0  0  0  0  0  0  0
   -3.5348   -5.0123    0.0000 C   0  0  0  0  0  0  0  0  0  0  0  0
   -2.8840   -3.6609    0.0000 C   0  0  0  0  0  0  0  0  0  0  0  0
   -1.2135   -2.7256    0.0000 N   0  0  0  0  0  0  0  0  0  0  0  0
   -0.0000   -3.6073    0.0000 C   0  0  0  0  0  0  0  0  0  0  0  0
    1.2135   -2.7256    0.0000 C   0  0  0  0  0  0  0  0  0  0  0  0
    0.7500   -1.2990    0.0000 C   0  0  0  0  0  0  0  0  0  0  0  0
    1.5000    0.0000    0.0000 C   0  0  0  0  0  0  0  0  0  0  0  0
    0.7500    1.2990    0.0000 C   0  0  0  0  0  0  0  0  0  0  0  0
   -0.7500    1.2990    0.0000 C   0  0  0  0  0  0  0  0  0  0  0  0
   -1.5000    0.0000    0.0000 C   0  0  0  0  0  0  0  0  0  0  0  0
   -0.7500   -1.2990    0.0000 C   0  0  0  0  0  0  0  0  0  0  0  0
    2.3863   -3.6609    0.0000 C   0  0  0  0  0  0  0  0  0  0  0  0
    3.0371   -5.0123    0.0000 C   0  0  0  0  0  0  0  0  0  0  0  0
    4.5235   -4.8110    0.0000 C   0  0  0  0  0  0  0  0  0  0  0  0
    5.5601   -5.8952    0.0000 O   0  0  0  0  0  0  0  0  0  0  0  0
    4.7914   -3.3351    0.0000 N   0  0  0  0  0  0  0  0  0  0  0  0
    3.4705   -2.6243    0.0000 C   0  0  0  0  0  0  0  0  0  0  0  0
    3.2691   -1.1378    0.0000 O   0  0  0  0  0  0  0  0  0  0  0  0
    3.0371   -6.5123    0.0000 C   0  0  0  0  0  0  0  0  0  0  0  0
    2.3863   -7.8638    0.0000 C   0  0  0  0  0  0  0  0  0  0  0  0
    1.2135   -8.7990    0.0000 N   0  0  0  0  0  0  0  0  0  0  0  0
    2.6179   -9.3261    0.0000 C   0  0  0  0  0  0  0  0  0  0  0  0
    3.1659  -10.7224    0.0000 C   0  0  0  0  0  0  0  0  0  0  0  0
    4.6491  -10.9459    0.0000 C   0  0  0  0  0  0  0  0  0  0  0  0
    5.5844   -9.7732    0.0000 C   0  0  0  0  0  0  0  0  0  0  0  0
    5.0364   -8.3769    0.0000 C   0  0  0  0  0  0  0  0  0  0  0  0
    3.5531   -8.1533    0.0000 C   0  0  0  0  0  0  0  0  0  0  0  0
   -0.2489   -9.1328    0.0000 C   0  0  0  0  0  0  0  0  0  0  0  0
   -1.7113   -8.7990    0.0000 C   0  0  0  0  0  0  0  0  0  0  0  0
   -2.8840   -7.8638    0.0000 O   0  0  0  0  0  0  0  0  0  0  0  0
  1  2  1  0
  2  3  1  0
  2  4  1  0
  5  4  1  6
  5  6  1  0
  6  7  1  0
  7  8  1  0
  8  9  1  0
  9 10  2  0
 10 11  1  0
 11 12  2  0
 12 13  1  0
 13 14  2  0
 14 15  1  0
 15 16  2  0
 10 17  1  0
 17 18  2  0
 18 19  1  0
 19 20  2  0
 19 21  1  0
 21 22  1  0
 22 23  2  0
 18 24  1  0
 24 25  2  0
 25 26  1  0
 26 27  1  0
 27 28  2  0
 28 29  1  0
 29 30  2  0
 30 31  1  0
 31 32  2  0
 26 33  1  0
 33 34  1  0
 34 35  1  0
 35  5  1  0
 16  8  1  0
 22 17  1  0
 32 24  1  0
 16 11  1  0
 32 27  1  0
M  END
>  <Molecule ChEMBL ID>  (8) 
CHEMBL91829

>  <Standard Type>  (8) 
Kd

>  <activity>  (8) 
5400

>  <Standard Units>  (8) 
nM

>  <activity_sd>  (8) 
0

>  <p_activity>  (8) 
5.268

$$$$
CHEMBL4848254
     RDKit          2D

 18 20  0  0  0  0  0  0  0  0999 V2000
   -6.1170   -7.0506    0.0000 C   0  0  0  0  0  0  0  0  0  0  0  0
   -4.6904   -6.5871    0.0000 N   0  0  0  0  0  0  0  0  0  0  0  0
   -3.5757   -7.5908    0.0000 C   0  0  0  0  0  0  0  0  0  0  0  0
   -4.3786   -5.1199    0.0000 C   0  0  0  0  0  0  0  0  0  0  0  0
   -5.4933   -4.1162    0.0000 N   0  0  0  0  0  0  0  0  0  0  0  0
   -5.1814   -2.6490    0.0000 C   0  0  0  0  0  0  0  0  0  0  0  0
   -3.7548   -2.1855    0.0000 C   0  0  0  0  0  0  0  0  0  0  0  0
   -2.6401   -3.1891    0.0000 C   0  0  0  0  0  0  0  0  0  0  0  0
   -1.2135   -2.7256    0.0000 C   0  0  0  0  0  0  0  0  0  0  0  0
   -0.0000   -3.6073    0.0000 C   0  0  0  0  0  0  0  0  0  0  0  0
    1.2135   -2.7256    0.0000 N   0  0  0  0  0  0  0  0  0  0  0  0
    0.7500   -1.2990    0.0000 N   0  0  0  0  0  0  0  0  0  0  0  0
    1.5000    0.0000    0.0000 N   0  0  0  0  0  0  0  0  0  0  0  0
    0.7500    1.2990    0.0000 C   0  0  0  0  0  0  0  0  0  0  0  0
   -0.7500    1.2990    0.0000 C   0  0  0  0  0  0  0  0  0  0  0  0
   -1.5000    0.0000    0.0000 C   0  0  0  0  0  0  0  0  0  0  0  0
   -0.7500   -1.2990    0.0000 C   0  0  0  0  0  0  0  0  0  0  0  0
   -2.9520   -4.6564    0.0000 N   0  0  0  0  0  0  0  0  0  0  0  0
  1  2  1  0
  2  3  1  0
  2  4  1  0
  4  5  2  0
  5  6  1  0
  6  7  2  0
  7  8  1  0
  8  9  1  0
  9 10  1  0
 10 11  2  0
 11 12  1  0
 12 13  1  0
 13 14  2  0
 14 15  1  0
 15 16  2  0
 16 17  1  0
  8 18  2  0
 18  4  1  0
 17  9  2  0
 17 12  1  0
M  END
>  <Molecule ChEMBL ID>  (9) 
CHEMBL4848254

>  <Standard Type>  (9) 
Kd

>  <activity>  (9) 
56

>  <Standard Units>  (9) 
nM

>  <activity_sd>  (9) 
NA

>  <p_activity>  (9) 
7.252

$$$$
CHEMBL428690
     RDKit          2D

 28 31  0  0  0  0  0  0  0  0999 V2000
   -7.5000   -2.5981    0.0000 C   0  0  0  0  0  0  0  0  0  0  0  0
   -6.0000   -2.5981    0.0000 N   0  0  0  0  0  0  0  0  0  0  0  0
   -5.2500   -1.2990    0.0000 C   0  0  0  0  0  0  0  0  0  0  0  0
   -3.7500   -1.2990    0.0000 C   0  0  0  0  0  0  0  0  0  0  0  0
   -3.0000   -2.5981    0.0000 C   0  0  0  0  0  0  0  0  0  0  0  0
   -1.5000   -2.5981    0.0000 C   0  0  0  0  0  0  0  0  0  0  0  0
   -0.7500   -3.8971    0.0000 C   0  0  0  0  0  0  0  0  0  0  0  0
   -1.5000   -5.1962    0.0000 O   0  0  0  0  0  0  0  0  0  0  0  0
    0.7500   -3.8971    0.0000 C   0  0  0  0  0  0  0  0  0  0  0  0
    1.5000   -2.5981    0.0000 C   0  0  0  0  0  0  0  0  0  0  0  0
    3.0000   -2.5981    0.0000 O   0  0  0  0  0  0  0  0  0  0  0  0
    0.7500   -1.2990    0.0000 C   0  0  0  0  0  0  0  0  0  0  0  0
    1.5000    0.0000    0.0000 C   0  0  0  0  0  0  0  0  0  0  0  0
    3.0000    0.0000    0.0000 O   0  0  0  0  0  0  0  0  0  0  0  0
    0.7500    1.2990    0.0000 C   0  0  0  0  0  0  0  0  0  0  0  0
   -0.7500    1.2990    0.0000 C   0  0  0  0  0  0  0  0  0  0  0  0
   -1.5000    2.5981    0.0000 C   0  0  0  0  0  0  0  0  0  0  0  0
   -0.7500    3.8971    0.0000 C   0  0  0  0  0  0  0  0  0  0  0  0
   -1.5000    5.1962    0.0000 C   0  0  0  0  0  0  0  0  0  0  0  0
   -3.0000    5.1962    0.0000 C   0  0  0  0  0  0  0  0  0  0  0  0
   -3.7500    3.8971    0.0000 C   0  0  0  0  0  0  0  0  0  0  0  0
   -3.0000    2.5981    0.0000 C   0  0  0  0  0  0  0  0  0  0  0  0
   -3.7500    1.2990    0.0000 Cl  0  0  0  0  0  0  0  0  0  0  0  0
   -1.5000    0.0000    0.0000 O   0  0  0  0  0  0  0  0  0  0  0  0
   -0.7500   -1.2990    0.0000 C   0  0  0  0  0  0  0  0  0  0  0  0
   -3.7500   -3.8971    0.0000 C   0  0  0  0  0  0  0  0  0  0  0  0
   -3.0000   -5.1962    0.0000 O   0  0  0  0  0  0  0  0  0  0  0  0
   -5.2500   -3.8971    0.0000 C   0  0  0  0  0  0  0  0  0  0  0  0
  1  2  1  0
  2  3  1  0
  3  4  1  0
  4  5  1  0
  5  6  1  6
  6  7  2  0
  7  8  1  0
  7  9  1  0
  9 10  2  0
 10 11  1  0
 10 12  1  0
 12 13  1  0
 13 14  2  0
 13 15  1  0
 15 16  2  0
 16 17  1  0
 17 18  2  0
 18 19  1  0
 19 20  2  0
 20 21  1  0
 21 22  2  0
 22 23  1  0
 16 24  1  0
 24 25  1  0
  5 26  1  0
 26 27  1  6
 26 28  1  0
 28  2  1  0
 25  6  1  0
 25 12  2  0
 22 17  1  0
M  END
>  <Molecule ChEMBL ID>  (10) 
CHEMBL428690

>  <Standard Type>  (10) 
Kd

>  <activity>  (10) 
84

>  <Standard Units>  (10) 
nM

>  <activity_sd>  (10) 
0

>  <p_activity>  (10) 
7.076

$$$$
CHEMBL464552
     RDKit          2D

 39 43  0  0  0  0  0  0  0  0999 V2000
   -8.1652   -1.5676    0.0000 C   0  0  0  0  0  0  0  0  0  0  0  0
   -7.8533   -0.1004    0.0000 N   0  0  0  0  0  0  0  0  0  0  0  0
   -6.4268    0.3631    0.0000 C   0  0  0  0  0  0  0  0  0  0  0  0
   -5.3120   -0.6406    0.0000 O   0  0  0  0  0  0  0  0  0  0  0  0
   -6.1149    1.8303    0.0000 C   0  0  0  0  0  0  0  0  0  0  0  0
   -7.2296    2.8340    0.0000 C   0  0  0  0  0  0  0  0  0  0  0  0
   -8.6562    2.3705    0.0000 F   0  0  0  0  0  0  0  0  0  0  0  0
   -6.9177    4.3013    0.0000 C   0  0  0  0  0  0  0  0  0  0  0  0
   -5.4912    4.7648    0.0000 C   0  0  0  0  0  0  0  0  0  0  0  0
   -4.3764    3.7611    0.0000 C   0  0  0  0  0  0  0  0  0  0  0  0
   -4.6883    2.2939    0.0000 C   0  0  0  0  0  0  0  0  0  0  0  0
   -3.5736    1.2902    0.0000 N   0  0  0  0  0  0  0  0  0  0  0  0
   -2.1470    1.7537    0.0000 C   0  0  0  0  0  0  0  0  0  0  0  0
   -1.8351    3.2209    0.0000 N   0  0  0  0  0  0  0  0  0  0  0  0
   -0.4086    3.6844    0.0000 C   0  0  0  0  0  0  0  0  0  0  0  0
   -0.0967    5.1517    0.0000 N   0  0  0  0  0  0  0  0  0  0  0  0
    1.3299    5.6152    0.0000 C   0  0  0  0  0  0  0  0  0  0  0  0
    1.6418    7.0824    0.0000 C   0  0  0  0  0  0  0  0  0  0  0  0
    3.0684    7.5459    0.0000 C   0  0  0  0  0  0  0  0  0  0  0  0
    4.1831    6.5422    0.0000 C   0  0  0  0  0  0  0  0  0  0  0  0
    3.8712    5.0750    0.0000 C   0  0  0  0  0  0  0  0  0  0  0  0
    2.4446    4.6115    0.0000 C   0  0  0  0  0  0  0  0  0  0  0  0
    2.1328    3.1443    0.0000 O   0  0  0  0  0  0  0  0  0  0  0  0
    3.2475    2.1406    0.0000 C   0  0  0  0  0  0  0  0  0  0  0  0
    5.4821    7.2922    0.0000 C   0  0  0  0  0  0  0  0  0  0  0  0
    5.1702    8.7595    0.0000 C   0  0  0  0  0  0  0  0  0  0  0  0
    3.6785    8.9163    0.0000 N   0  0  0  0  0  0  0  0  0  0  0  0
    2.9285   10.2153    0.0000 C   0  0  0  0  0  0  0  0  0  0  0  0
    1.4285   10.2153    0.0000 O   0  0  0  0  0  0  0  0  0  0  0  0
    3.6785   11.5143    0.0000 C   0  0  0  0  0  0  0  0  0  0  0  0
    2.9285   12.8134    0.0000 N   0  0  0  0  0  0  0  0  0  0  0  0
    3.6785   14.1124    0.0000 C   0  0  0  0  0  0  0  0  0  0  0  0
    1.4285   12.8134    0.0000 C   0  0  0  0  0  0  0  0  0  0  0  0
    0.7062    2.6807    0.0000 N   0  0  0  0  0  0  0  0  0  0  0  0
    0.3943    1.2135    0.0000 C   0  0  0  0  0  0  0  0  0  0  0  0
    1.2760    0.0000    0.0000 N   0  0  0  0  0  0  0  0  0  0  0  0
    0.3943   -1.2135    0.0000 C   0  0  0  0  0  0  0  0  0  0  0  0
   -1.0323   -0.7500    0.0000 C   0  0  0  0  0  0  0  0  0  0  0  0
   -1.0323    0.7500    0.0000 C   0  0  0  0  0  0  0  0  0  0  0  0
  1  2  1  0
  2  3  1  0
  3  4  2  0
  3  5  1  0
  5  6  2  0
  6  7  1  0
  6  8  1  0
  8  9  2  0
  9 10  1  0
 10 11  2  0
 11 12  1  0
 12 13  1  0
 13 14  2  0
 14 15  1  0
 15 16  1  0
 16 17  1  0
 17 18  2  0
 18 19  1  0
 19 20  2  0
 20 21  1  0
 21 22  2  0
 22 23  1  0
 23 24  1  0
 20 25  1  0
 25 26  1  0
 26 27  1  0
 27 28  1  0
 28 29  2  0
 28 30  1  0
 30 31  1  0
 31 32  1  0
 31 33  1  0
 15 34  2  0
 34 35  1  0
 35 36  1  0
 36 37  1  0
 37 38  2  0
 38 39  1  0
 11  5  1  0
 39 13  1  0
 22 17  1  0
 39 35  2  0
 27 19  1  0
M  END
>  <Molecule ChEMBL ID>  (11) 
CHEMBL464552

>  <Standard Type>  (11) 
Kd

>  <activity>  (11) 
970

>  <Standard Units>  (11) 
nM

>  <activity_sd>  (11) 
NA

>  <p_activity>  (11) 
6.013

$$$$
CHEMBL388978
     RDKit          2D

 35 42  0  0  0  0  0  0  0  0999 V2000
    7.0384   -5.9220    0.0000 C   0  0  0  0  0  0  0  0  0  0  0  0
    6.3474   -4.5907    0.0000 N   0  0  0  0  0  0  0  0  0  0  0  0
    4.8489   -4.5234    0.0000 C   0  0  0  0  0  0  0  0  0  0  0  0
    4.0414   -5.7874    0.0000 C   0  0  0  0  0  0  0  0  0  0  0  0
    2.5382   -5.8249    0.0000 C   0  0  0  0  0  0  0  0  0  0  0  0
    3.2490   -4.5040    0.0000 O   0  0  0  0  0  0  0  0  0  0  0  0
    2.6595   -3.1247    0.0000 C   0  0  0  0  0  0  0  0  0  0  0  0
    3.6464   -1.9951    0.0000 C   0  0  0  0  0  0  0  0  0  0  0  0
    4.1580   -3.1920    0.0000 C   0  0  0  0  0  0  0  0  0  0  0  0
    4.9655   -1.9279    0.0000 O   0  0  0  0  0  0  0  0  0  0  0  0
    6.4640   -1.9952    0.0000 C   0  0  0  0  0  0  0  0  0  0  0  0
    1.2135   -2.7256    0.0000 N   0  0  0  0  0  0  0  0  0  0  0  0
    0.7500   -1.2990    0.0000 C   0  0  0  0  0  0  0  0  0  0  0  0
    1.5000    0.0000    0.0000 C   0  0  0  0  0  0  0  0  0  0  0  0
    0.7500    1.2990    0.0000 C   0  0  0  0  0  0  0  0  0  0  0  0
   -0.7500    1.2990    0.0000 C   0  0  0  0  0  0  0  0  0  0  0  0
   -1.5000    0.0000    0.0000 C   0  0  0  0  0  0  0  0  0  0  0  0
   -0.7500   -1.2990    0.0000 C   0  0  0  0  0  0  0  0  0  0  0  0
   -1.2135   -2.7256    0.0000 C   0  0  0  0  0  0  0  0  0  0  0  0
   -2.5518   -3.5691    0.0000 C   0  0  0  0  0  0  0  0  0  0  0  0
   -2.6191   -5.0676    0.0000 C   0  0  0  0  0  0  0  0  0  0  0  0
   -1.3550   -5.8751    0.0000 C   0  0  0  0  0  0  0  0  0  0  0  0
   -1.0212   -7.3375    0.0000 C   0  0  0  0  0  0  0  0  0  0  0  0
   -1.8846   -8.5641    0.0000 C   0  0  0  0  0  0  0  0  0  0  0  0
   -1.2541   -9.9251    0.0000 C   0  0  0  0  0  0  0  0  0  0  0  0
    0.2399  -10.0596    0.0000 C   0  0  0  0  0  0  0  0  0  0  0  0
    1.1033   -8.8330    0.0000 C   0  0  0  0  0  0  0  0  0  0  0  0
    0.4728   -7.4720    0.0000 C   0  0  0  0  0  0  0  0  0  0  0  0
    1.0623   -6.0927    0.0000 N   0  0  0  0  0  0  0  0  0  0  0  0
   -0.0673   -5.1058    0.0000 C   0  0  0  0  0  0  0  0  0  0  0  0
   -0.0000   -3.6073    0.0000 C   0  0  0  0  0  0  0  0  0  0  0  0
   -4.0650   -5.4667    0.0000 C   0  0  0  0  0  0  0  0  0  0  0  0
   -4.5921   -6.8710    0.0000 O   0  0  0  0  0  0  0  0  0  0  0  0
   -4.8913   -4.2148    0.0000 N   0  0  0  0  0  0  0  0  0  0  0  0
   -3.9561   -3.0421    0.0000 C   0  0  0  0  0  0  0  0  0  0  0  0
  1  2  1  0
  3  2  1  6
  3  4  1  0
  5  4  1  6
  5  6  1  0
  6  7  1  0
  7  8  1  1
  7  9  1  0
  9 10  1  6
 10 11  1  0
  7 12  1  0
 12 13  1  0
 13 14  2  0
 14 15  1  0
 15 16  2  0
 16 17  1  0
 17 18  2  0
 18 19  1  0
 19 20  2  0
 20 21  1  0
 21 22  2  0
 22 23  1  0
 23 24  2  0
 24 25  1  0
 25 26  2  0
 26 27  1  0
 27 28  2  0
 28 29  1  0
 29 30  1  0
 30 31  2  0
 21 32  1  0
 32 33  2  0
 32 34  1  0
 34 35  1  0
  9  3  1  0
 31 12  1  0
 29  5  1  0
 18 13  1  0
 31 19  1  0
 35 20  1  0
 30 22  1  0
 28 23  1  0
M  END
>  <Molecule ChEMBL ID>  (12) 
CHEMBL388978

>  <Standard Type>  (12) 
Kd

>  <activity>  (12) 
28

>  <Standard Units>  (12) 
nM

>  <activity_sd>  (12) 
0

>  <p_activity>  (12) 
7.553

$$$$
CHEMBL502835
     RDKit          2D

 40 44  0  0  0  0  0  0  0  0999 V2000
    5.2500   -1.2990    0.0000 C   0  0  0  0  0  0  0  0  0  0  0  0
    3.7500   -1.2990    0.0000 O   0  0  0  0  0  0  0  0  0  0  0  0
    3.0000    0.0000    0.0000 C   0  0  0  0  0  0  0  0  0  0  0  0
    3.7500    1.2990    0.0000 O   0  0  0  0  0  0  0  0  0  0  0  0
    1.5000    0.0000    0.0000 C   0  0  0  0  0  0  0  0  0  0  0  0
    0.7500   -1.2990    0.0000 C   0  0  0  0  0  0  0  0  0  0  0  0
   -0.7500   -1.2990    0.0000 C   0  0  0  0  0  0  0  0  0  0  0  0
   -1.5000    0.0000    0.0000 C   0  0  0  0  0  0  0  0  0  0  0  0
   -0.7500    1.2990    0.0000 C   0  0  0  0  0  0  0  0  0  0  0  0
    0.7500    1.2990    0.0000 C   0  0  0  0  0  0  0  0  0  0  0  0
   -1.7537    2.4138    0.0000 N   0  0  0  0  0  0  0  0  0  0  0  0
   -3.1240    1.8037    0.0000 C   0  0  0  0  0  0  0  0  0  0  0  0
   -4.4231    2.5537    0.0000 O   0  0  0  0  0  0  0  0  0  0  0  0
   -2.9672    0.3119    0.0000 C   0  0  0  0  0  0  0  0  0  0  0  0
   -4.0819   -0.6918    0.0000 C   0  0  0  0  0  0  0  0  0  0  0  0
   -5.5085   -0.2283    0.0000 N   0  0  0  0  0  0  0  0  0  0  0  0
   -6.6232   -1.2320    0.0000 C   0  0  0  0  0  0  0  0  0  0  0  0
   -8.0498   -0.7685    0.0000 C   0  0  0  0  0  0  0  0  0  0  0  0
   -9.1645   -1.7722    0.0000 C   0  0  0  0  0  0  0  0  0  0  0  0
   -8.8527   -3.2394    0.0000 C   0  0  0  0  0  0  0  0  0  0  0  0
   -9.9674   -4.2431    0.0000 N   0  0  0  0  0  0  0  0  0  0  0  0
  -11.3940   -3.7796    0.0000 C   0  0  0  0  0  0  0  0  0  0  0  0
   -9.6555   -5.7103    0.0000 C   0  0  0  0  0  0  0  0  0  0  0  0
   -8.2289   -6.1738    0.0000 O   0  0  0  0  0  0  0  0  0  0  0  0
  -10.7702   -6.7140    0.0000 C   0  0  0  0  0  0  0  0  0  0  0  0
  -10.4584   -8.1812    0.0000 N   0  0  0  0  0  0  0  0  0  0  0  0
  -11.5731   -9.1849    0.0000 C   0  0  0  0  0  0  0  0  0  0  0  0
  -11.2612  -10.6521    0.0000 C   0  0  0  0  0  0  0  0  0  0  0  0
   -9.8346  -11.1157    0.0000 N   0  0  0  0  0  0  0  0  0  0  0  0
   -9.5228  -12.5829    0.0000 C   0  0  0  0  0  0  0  0  0  0  0  0
   -8.7199  -10.1120    0.0000 C   0  0  0  0  0  0  0  0  0  0  0  0
   -9.0318   -8.6448    0.0000 C   0  0  0  0  0  0  0  0  0  0  0  0
   -7.4261   -3.7029    0.0000 C   0  0  0  0  0  0  0  0  0  0  0  0
   -6.3114   -2.6992    0.0000 C   0  0  0  0  0  0  0  0  0  0  0  0
   -3.7701   -2.1590    0.0000 C   0  0  0  0  0  0  0  0  0  0  0  0
   -4.8848   -3.1627    0.0000 C   0  0  0  0  0  0  0  0  0  0  0  0
   -4.5729   -4.6300    0.0000 C   0  0  0  0  0  0  0  0  0  0  0  0
   -3.1463   -5.0935    0.0000 C   0  0  0  0  0  0  0  0  0  0  0  0
   -2.0316   -4.0898    0.0000 C   0  0  0  0  0  0  0  0  0  0  0  0
   -2.3435   -2.6226    0.0000 C   0  0  0  0  0  0  0  0  0  0  0  0
  1  2  1  0
  2  3  1  0
  3  4  2  0
  3  5  1  0
  5  6  2  0
  6  7  1  0
  7  8  2  0
  8  9  1  0
  9 10  2  0
  9 11  1  0
 11 12  1  0
 12 13  2  0
 12 14  1  0
 14 15  2  0
 15 16  1  0
 16 17  1  0
 17 18  2  0
 18 19  1  0
 19 20  2  0
 20 21  1  0
 21 22  1  0
 21 23  1  0
 23 24  2  0
 23 25  1  0
 25 26  1  0
 26 27  1  0
 27 28  1  0
 28 29  1  0
 29 30  1  0
 29 31  1  0
 31 32  1  0
 20 33  1  0
 33 34  2  0
 15 35  1  0
 35 36  2  0
 36 37  1  0
 37 38  2  0
 38 39  1  0
 39 40  2  0
 10  5  1  0
 34 17  1  0
 40 35  1  0
 14  8  1  0
 32 26  1  0
M  END
>  <Molecule ChEMBL ID>  (13) 
CHEMBL502835

>  <Standard Type>  (13) 
Kd

>  <activity>  (13) 
1600

>  <Standard Units>  (13) 
nM

>  <activity_sd>  (13) 
NA

>  <p_activity>  (13) 
5.796

$$$$
CHEMBL4066819
     RDKit          2D

 29 32  0  0  0  0  0  0  0  0999 V2000
   14.7676    6.2804    0.0000 C   0  0  0  0  0  0  0  0  0  0  0  0
   13.3973    6.8905    0.0000 O   0  0  0  0  0  0  0  0  0  0  0  0
   12.1838    6.0088    0.0000 C   0  0  0  0  0  0  0  0  0  0  0  0
   10.8135    6.6189    0.0000 C   0  0  0  0  0  0  0  0  0  0  0  0
    9.5999    5.7372    0.0000 N   0  0  0  0  0  0  0  0  0  0  0  0
    8.2296    6.3474    0.0000 C   0  0  0  0  0  0  0  0  0  0  0  0
    8.0728    7.8391    0.0000 O   0  0  0  0  0  0  0  0  0  0  0  0
    7.0161    5.4657    0.0000 C   0  0  0  0  0  0  0  0  0  0  0  0
    7.1729    3.9739    0.0000 C   0  0  0  0  0  0  0  0  0  0  0  0
    5.9594    3.0922    0.0000 C   0  0  0  0  0  0  0  0  0  0  0  0
    4.5890    3.7023    0.0000 C   0  0  0  0  0  0  0  0  0  0  0  0
    3.3755    2.8206    0.0000 O   0  0  0  0  0  0  0  0  0  0  0  0
    2.0052    3.4307    0.0000 C   0  0  0  0  0  0  0  0  0  0  0  0
    1.6933    4.8980    0.0000 S   0  0  0  0  0  0  0  0  0  0  0  0
    0.2016    5.0548    0.0000 C   0  0  0  0  0  0  0  0  0  0  0  0
   -0.5484    6.3538    0.0000 C   0  0  0  0  0  0  0  0  0  0  0  0
    0.2016    7.6528    0.0000 N   0  0  0  0  0  0  0  0  0  0  0  0
   -2.0484    6.3538    0.0000 O   0  0  0  0  0  0  0  0  0  0  0  0
   -0.4086    3.6844    0.0000 C   0  0  0  0  0  0  0  0  0  0  0  0
    0.7062    2.6807    0.0000 C   0  0  0  0  0  0  0  0  0  0  0  0
    0.3943    1.2135    0.0000 C   0  0  0  0  0  0  0  0  0  0  0  0
    1.2760    0.0000    0.0000 S   0  0  0  0  0  0  0  0  0  0  0  0
    0.3943   -1.2135    0.0000 N   0  0  0  0  0  0  0  0  0  0  0  0
   -1.0323   -0.7500    0.0000 C   0  0  0  0  0  0  0  0  0  0  0  0
   -1.0323    0.7500    0.0000 C   0  0  0  0  0  0  0  0  0  0  0  0
   -2.1470    1.7537    0.0000 C   0  0  0  0  0  0  0  0  0  0  0  0
   -1.8351    3.2209    0.0000 C   0  0  0  0  0  0  0  0  0  0  0  0
    4.4323    5.1941    0.0000 C   0  0  0  0  0  0  0  0  0  0  0  0
    5.6458    6.0758    0.0000 N   0  0  0  0  0  0  0  0  0  0  0  0
  1  2  1  0
  2  3  1  0
  3  4  1  0
  4  5  1  0
  5  6  1  0
  6  7  2  0
  6  8  1  0
  8  9  2  0
  9 10  1  0
 10 11  2  0
 11 12  1  0
 12 13  1  0
 13 14  1  0
 14 15  1  0
 15 16  1  0
 16 17  1  0
 16 18  2  0
 15 19  2  0
 19 20  1  0
 20 21  1  0
 21 22  1  0
 22 23  1  0
 23 24  2  0
 24 25  1  0
 25 26  1  0
 26 27  1  0
 11 28  1  0
 28 29  2  0
 29  8  1  0
 20 13  2  0
 25 21  2  0
 27 19  1  0
M  END
>  <Molecule ChEMBL ID>  (14) 
CHEMBL4066819

>  <Standard Type>  (14) 
Kd

>  <activity>  (14) 
81

>  <Standard Units>  (14) 
nM

>  <activity_sd>  (14) 
NA

>  <p_activity>  (14) 
7.092

$$$$
CHEMBL608533
     RDKit          2D

 43 51  0  0  0  0  0  0  0  0999 V2000
    6.4640   -1.9952    0.0000 C   0  0  0  0  0  0  0  0  0  0  0  0
    4.9655   -1.9279    0.0000 O   0  0  0  0  0  0  0  0  0  0  0  0
    4.1580   -3.1920    0.0000 C   0  0  0  0  0  0  0  0  0  0  0  0
    4.8489   -4.5234    0.0000 C   0  0  0  0  0  0  0  0  0  0  0  0
    6.3474   -4.5907    0.0000 N   0  0  0  0  0  0  0  0  0  0  0  0
    7.1549   -3.3266    0.0000 C   0  0  0  0  0  0  0  0  0  0  0  0
    7.0384   -5.9220    0.0000 C   0  0  0  0  0  0  0  0  0  0  0  0
    6.2309   -7.1861    0.0000 O   0  0  0  0  0  0  0  0  0  0  0  0
    8.5369   -5.9893    0.0000 C   0  0  0  0  0  0  0  0  0  0  0  0
    9.3444   -4.7252    0.0000 C   0  0  0  0  0  0  0  0  0  0  0  0
   10.8429   -4.7925    0.0000 C   0  0  0  0  0  0  0  0  0  0  0  0
   11.5338   -6.1239    0.0000 C   0  0  0  0  0  0  0  0  0  0  0  0
   10.7263   -7.3880    0.0000 C   0  0  0  0  0  0  0  0  0  0  0  0
    9.2278   -7.3207    0.0000 C   0  0  0  0  0  0  0  0  0  0  0  0
    4.0414   -5.7874    0.0000 C   0  0  0  0  0  0  0  0  0  0  0  0
    2.5382   -5.8249    0.0000 C   0  0  0  0  0  0  0  0  0  0  0  0
    3.2490   -4.5040    0.0000 O   0  0  0  0  0  0  0  0  0  0  0  0
    2.6595   -3.1247    0.0000 C   0  0  0  0  0  0  0  0  0  0  0  0
    3.6464   -1.9951    0.0000 C   0  0  0  0  0  0  0  0  0  0  0  0
    1.2135   -2.7256    0.0000 N   0  0  0  0  0  0  0  0  0  0  0  0
    0.7500   -1.2990    0.0000 C   0  0  0  0  0  0  0  0  0  0  0  0
    1.5000    0.0000    0.0000 C   0  0  0  0  0  0  0  0  0  0  0  0
    0.7500    1.2990    0.0000 C   0  0  0  0  0  0  0  0  0  0  0  0
   -0.7500    1.2990    0.0000 C   0  0  0  0  0  0  0  0  0  0  0  0
   -1.5000    0.0000    0.0000 C   0  0  0  0  0  0  0  0  0  0  0  0
   -0.7500   -1.2990    0.0000 C   0  0  0  0  0  0  0  0  0  0  0  0
   -1.2135   -2.7256    0.0000 C   0  0  0  0  0  0  0  0  0  0  0  0
   -2.5518   -3.5691    0.0000 C   0  0  0  0  0  0  0  0  0  0  0  0
   -2.6191   -5.0676    0.0000 C   0  0  0  0  0  0  0  0  0  0  0  0
   -1.3550   -5.8751    0.0000 C   0  0  0  0  0  0  0  0  0  0  0  0
   -1.0212   -7.3375    0.0000 C   0  0  0  0  0  0  0  0  0  0  0  0
   -1.8846   -8.5641    0.0000 C   0  0  0  0  0  0  0  0  0  0  0  0
   -1.2541   -9.9251    0.0000 C   0  0  0  0  0  0  0  0  0  0  0  0
    0.2399  -10.0596    0.0000 C   0  0  0  0  0  0  0  0  0  0  0  0
    1.1033   -8.8330    0.0000 C   0  0  0  0  0  0  0  0  0  0  0  0
    0.4728   -7.4720    0.0000 C   0  0  0  0  0  0  0  0  0  0  0  0
    1.0623   -6.0927    0.0000 N   0  0  0  0  0  0  0  0  0  0  0  0
   -0.0673   -5.1058    0.0000 C   0  0  0  0  0  0  0  0  0  0  0  0
   -0.0000   -3.6073    0.0000 C   0  0  0  0  0  0  0  0  0  0  0  0
   -4.0650   -5.4667    0.0000 C   0  0  0  0  0  0  0  0  0  0  0  0
   -4.5921   -6.8710    0.0000 O   0  0  0  0  0  0  0  0  0  0  0  0
   -4.8913   -4.2148    0.0000 N   0  0  0  0  0  0  0  0  0  0  0  0
   -3.9561   -3.0421    0.0000 C   0  0  0  0  0  0  0  0  0  0  0  0
  1  2  1  0
  3  2  1  6
  3  4  1  0
  4  5  1  6
  5  6  1  0
  5  7  1  0
  7  8  2  0
  7  9  1  0
  9 10  2  0
 10 11  1  0
 11 12  2  0
 12 13  1  0
 13 14  2  0
  4 15  1  0
 16 15  1  6
 16 17  1  0
 17 18  1  0
 18 19  1  1
 18 20  1  0
 20 21  1  0
 21 22  2  0
 22 23  1  0
 23 24  2  0
 24 25  1  0
 25 26  2  0
 26 27  1  0
 27 28  2  0
 28 29  1  0
 29 30  2  0
 30 31  1  0
 31 32  2  0
 32 33  1  0
 33 34  2  0
 34 35  1  0
 35 36  2  0
 36 37  1  0
 37 38  1  0
 38 39  2  0
 29 40  1  0
 40 41  2  0
 40 42  1  0
 42 43  1  0
 18  3  1  0
 39 20  1  0
 14  9  1  0
 37 16  1  0
 26 21  1  0
 39 27  1  0
 43 28  1  0
 38 30  1  0
 36 31  1  0
M  END
>  <Molecule ChEMBL ID>  (15) 
CHEMBL608533

>  <Standard Type>  (15) 
Kd

>  <activity>  (15) 
330

>  <Standard Units>  (15) 
nM

>  <activity_sd>  (15) 
0

>  <p_activity>  (15) 
6.481

$$$$
CHEMBL4576489
     RDKit          2D

 67 77  0  0  0  0  0  0  0  0999 V2000
    6.4640   -1.9952    0.0000 C   0  0  0  0  0  0  0  0  0  0  0  0
    4.9655   -1.9279    0.0000 O   0  0  0  0  0  0  0  0  0  0  0  0
    4.1580   -3.1920    0.0000 C   0  0  0  0  0  0  0  0  0  0  0  0
    4.8489   -4.5234    0.0000 C   0  0  0  0  0  0  0  0  0  0  0  0
    6.3474   -4.5907    0.0000 N   0  0  0  0  0  0  0  0  0  0  0  0
    7.0384   -5.9220    0.0000 C   0  0  0  0  0  0  0  0  0  0  0  0
    7.1549   -3.3266    0.0000 C   0  0  0  0  0  0  0  0  0  0  0  0
    8.6534   -3.3939    0.0000 C   0  0  0  0  0  0  0  0  0  0  0  0
    9.4610   -2.1298    0.0000 O   0  0  0  0  0  0  0  0  0  0  0  0
   10.9594   -2.1971    0.0000 C   0  0  0  0  0  0  0  0  0  0  0  0
   11.7670   -0.9330    0.0000 C   0  0  0  0  0  0  0  0  0  0  0  0
   13.2655   -1.0003    0.0000 O   0  0  0  0  0  0  0  0  0  0  0  0
   14.0730    0.2638    0.0000 C   0  0  0  0  0  0  0  0  0  0  0  0
   15.5715    0.1965    0.0000 C   0  0  0  0  0  0  0  0  0  0  0  0
   16.3790    1.4606    0.0000 O   0  0  0  0  0  0  0  0  0  0  0  0
   17.8775    1.3933    0.0000 C   0  0  0  0  0  0  0  0  0  0  0  0
   18.6850    2.6574    0.0000 C   0  0  0  0  0  0  0  0  0  0  0  0
   20.1835    2.5901    0.0000 N   0  0  0  0  0  0  0  0  0  0  0  0
   20.9910    3.8541    0.0000 C   0  0  0  0  0  0  0  0  0  0  0  0
   20.3001    5.1855    0.0000 O   0  0  0  0  0  0  0  0  0  0  0  0
   22.4895    3.7868    0.0000 C   0  0  0  0  0  0  0  0  0  0  0  0
   23.2970    5.0509    0.0000 C   0  0  0  0  0  0  0  0  0  0  0  0
   24.7955    4.9836    0.0000 C   0  0  0  0  0  0  0  0  0  0  0  0
   25.7308    6.1564    0.0000 N   0  0  0  0  0  0  0  0  0  0  0  0
   27.1351    5.6293    0.0000 C   0  0  0  0  0  0  0  0  0  0  0  0
   28.2937    6.5820    0.0000 C   0  0  0  0  0  0  0  0  0  0  0  0
   28.0480    8.0617    0.0000 C   0  0  0  0  0  0  0  0  0  0  0  0
   28.9833    9.2345    0.0000 C   0  0  0  0  0  0  0  0  0  0  0  0
   30.4817    9.1672    0.0000 C   0  0  0  0  0  0  0  0  0  0  0  0
   28.1569   10.4863    0.0000 C   0  0  0  0  0  0  0  0  0  0  0  0
   26.7110   10.0873    0.0000 C   0  0  0  0  0  0  0  0  0  0  0  0
   25.5382   11.0225    0.0000 C   0  0  0  0  0  0  0  0  0  0  0  0
   26.6437    8.5888    0.0000 N   0  0  0  0  0  0  0  0  0  0  0  0
   25.4850    7.6361    0.0000 B   0  0  0  0  0  0  0  0  0  0  0  0
   24.0705    7.1372    0.0000 F   0  0  0  0  0  0  0  0  0  0  0  0
   24.7480    8.9426    0.0000 F   0  0  0  0  0  0  0  0  0  0  0  0
   27.0678    4.1308    0.0000 C   0  0  0  0  0  0  0  0  0  0  0  0
   25.6219    3.7318    0.0000 C   0  0  0  0  0  0  0  0  0  0  0  0
    4.0414   -5.7874    0.0000 C   0  0  0  0  0  0  0  0  0  0  0  0
    2.5382   -5.8249    0.0000 C   0  0  0  0  0  0  0  0  0  0  0  0
    3.2490   -4.5040    0.0000 O   0  0  0  0  0  0  0  0  0  0  0  0
    2.6595   -3.1247    0.0000 C   0  0  0  0  0  0  0  0  0  0  0  0
    3.6464   -1.9951    0.0000 C   0  0  0  0  0  0  0  0  0  0  0  0
    1.2135   -2.7256    0.0000 N   0  0  0  0  0  0  0  0  0  0  0  0
    0.7500   -1.2990    0.0000 C   0  0  0  0  0  0  0  0  0  0  0  0
    1.5000    0.0000    0.0000 C   0  0  0  0  0  0  0  0  0  0  0  0
    0.7500    1.2990    0.0000 C   0  0  0  0  0  0  0  0  0  0  0  0
   -0.7500    1.2990    0.0000 C   0  0  0  0  0  0  0  0  0  0  0  0
   -1.5000    0.0000    0.0000 C   0  0  0  0  0  0  0  0  0  0  0  0
   -0.7500   -1.2990    0.0000 C   0  0  0  0  0  0  0  0  0  0  0  0
   -1.2135   -2.7256    0.0000 C   0  0  0  0  0  0  0  0  0  0  0  0
   -2.5518   -3.5691    0.0000 C   0  0  0  0  0  0  0  0  0  0  0  0
   -2.6191   -5.0676    0.0000 C   0  0  0  0  0  0  0  0  0  0  0  0
   -1.3550   -5.8751    0.0000 C   0  0  0  0  0  0  0  0  0  0  0  0
   -1.0212   -7.3375    0.0000 C   0  0  0  0  0  0  0  0  0  0  0  0
   -1.8846   -8.5641    0.0000 C   0  0  0  0  0  0  0  0  0  0  0  0
   -1.2541   -9.9251    0.0000 C   0  0  0  0  0  0  0  0  0  0  0  0
    0.2399  -10.0596    0.0000 C   0  0  0  0  0  0  0  0  0  0  0  0
    1.1033   -8.8330    0.0000 C   0  0  0  0  0  0  0  0  0  0  0  0
    0.4728   -7.4720    0.0000 C   0  0  0  0  0  0  0  0  0  0  0  0
    1.0623   -6.0927    0.0000 N   0  0  0  0  0  0  0  0  0  0  0  0
   -0.0673   -5.1058    0.0000 C   0  0  0  0  0  0  0  0  0  0  0  0
   -0.0000   -3.6073    0.0000 C   0  0  0  0  0  0  0  0  0  0  0  0
   -4.0650   -5.4667    0.0000 C   0  0  0  0  0  0  0  0  0  0  0  0
   -4.5921   -6.8710    0.0000 O   0  0  0  0  0  0  0  0  0  0  0  0
   -4.8913   -4.2148    0.0000 N   0  0  0  0  0  0  0  0  0  0  0  0
   -3.9561   -3.0421    0.0000 C   0  0  0  0  0  0  0  0  0  0  0  0
  1  2  1  0
  3  2  1  6
  3  4  1  0
  4  5  1  6
  5  6  1  0
  5  7  1  0
  7  8  1  0
  8  9  1  0
  9 10  1  0
 10 11  1  0
 11 12  1  0
 12 13  1  0
 13 14  1  0
 14 15  1  0
 15 16  1  0
 16 17  1  0
 17 18  1  0
 18 19  1  0
 19 20  2  0
 19 21  1  0
 21 22  1  0
 22 23  1  0
 23 24  2  0
 24 25  1  0
 25 26  2  0
 26 27  1  0
 27 28  2  0
 28 29  1  0
 28 30  1  0
 30 31  2  0
 31 32  1  0
 31 33  1  0
 33 34  1  0
 34 35  1  0
 34 36  1  0
 25 37  1  0
 37 38  2  0
  4 39  1  0
 40 39  1  6
 40 41  1  0
 41 42  1  0
 42 43  1  1
 42 44  1  0
 44 45  1  0
 45 46  2  0
 46 47  1  0
 47 48  2  0
 48 49  1  0
 49 50  2  0
 50 51  1  0
 51 52  2  0
 52 53  1  0
 53 54  2  0
 54 55  1  0
 55 56  2  0
 56 57  1  0
 57 58  2  0
 58 59  1  0
 59 60  2  0
 60 61  1  0
 61 62  1  0
 62 63  2  0
 53 64  1  0
 64 65  2  0
 64 66  1  0
 66 67  1  0
 42  3  1  0
 63 44  1  0
 38 23  1  0
 61 40  1  0
 34 24  1  0
 50 45  1  0
 63 51  1  0
 33 27  1  0
 67 52  1  0
 62 54  1  0
 60 55  1  0
M  CHG  2  24   1  34  -1
M  END
>  <Molecule ChEMBL ID>  (16) 
CHEMBL4576489

>  <Standard Type>  (16) 
Kd

>  <activity>  (16) 
40

>  <Standard Units>  (16) 
nM

>  <activity_sd>  (16) 
NA

>  <p_activity>  (16) 
7.398

$$$$
CHEMBL4465866
     RDKit          2D

 66 76  0  0  0  0  0  0  0  0999 V2000
    6.4640   -1.9952    0.0000 C   0  0  0  0  0  0  0  0  0  0  0  0
    4.9655   -1.9279    0.0000 O   0  0  0  0  0  0  0  0  0  0  0  0
    4.1580   -3.1920    0.0000 C   0  0  0  0  0  0  0  0  0  0  0  0
    4.8489   -4.5234    0.0000 C   0  0  0  0  0  0  0  0  0  0  0  0
    6.3474   -4.5907    0.0000 N   0  0  0  0  0  0  0  0  0  0  0  0
    7.0384   -5.9220    0.0000 C   0  0  0  0  0  0  0  0  0  0  0  0
    8.5369   -5.9893    0.0000 C   0  0  0  0  0  0  0  0  0  0  0  0
    9.2278   -7.3207    0.0000 O   0  0  0  0  0  0  0  0  0  0  0  0
   10.7263   -7.3880    0.0000 C   0  0  0  0  0  0  0  0  0  0  0  0
   11.4173   -8.7194    0.0000 C   0  0  0  0  0  0  0  0  0  0  0  0
   12.9158   -8.7867    0.0000 O   0  0  0  0  0  0  0  0  0  0  0  0
   13.6067  -10.1181    0.0000 C   0  0  0  0  0  0  0  0  0  0  0  0
   15.1052  -10.1854    0.0000 C   0  0  0  0  0  0  0  0  0  0  0  0
   15.7962  -11.5167    0.0000 O   0  0  0  0  0  0  0  0  0  0  0  0
   17.2947  -11.5840    0.0000 C   0  0  0  0  0  0  0  0  0  0  0  0
   17.9856  -12.9154    0.0000 C   0  0  0  0  0  0  0  0  0  0  0  0
   19.4841  -12.9827    0.0000 N   0  0  0  0  0  0  0  0  0  0  0  0
   20.1751  -14.3141    0.0000 C   0  0  0  0  0  0  0  0  0  0  0  0
   19.3676  -15.5782    0.0000 O   0  0  0  0  0  0  0  0  0  0  0  0
   21.6736  -14.3814    0.0000 C   0  0  0  0  0  0  0  0  0  0  0  0
   22.3645  -15.7128    0.0000 C   0  0  0  0  0  0  0  0  0  0  0  0
   23.8630  -15.7801    0.0000 C   0  0  0  0  0  0  0  0  0  0  0  0
   24.6894  -17.0319    0.0000 N   0  0  0  0  0  0  0  0  0  0  0  0
   26.1353  -16.6329    0.0000 C   0  0  0  0  0  0  0  0  0  0  0  0
   27.2039  -17.6856    0.0000 C   0  0  0  0  0  0  0  0  0  0  0  0
   26.8265  -19.1373    0.0000 C   0  0  0  0  0  0  0  0  0  0  0  0
   27.6529  -20.3892    0.0000 C   0  0  0  0  0  0  0  0  0  0  0  0
   29.1513  -20.4565    0.0000 C   0  0  0  0  0  0  0  0  0  0  0  0
   26.7176  -21.5619    0.0000 C   0  0  0  0  0  0  0  0  0  0  0  0
   25.3133  -21.0349    0.0000 C   0  0  0  0  0  0  0  0  0  0  0  0
   24.0614  -21.8612    0.0000 C   0  0  0  0  0  0  0  0  0  0  0  0
   25.3806  -19.5364    0.0000 N   0  0  0  0  0  0  0  0  0  0  0  0
   24.3120  -18.4837    0.0000 B   0  0  0  0  0  0  0  0  0  0  0  0
   22.9478  -17.8599    0.0000 F   0  0  0  0  0  0  0  0  0  0  0  0
   23.4609  -19.7188    0.0000 F   0  0  0  0  0  0  0  0  0  0  0  0
   26.2026  -15.1344    0.0000 C   0  0  0  0  0  0  0  0  0  0  0  0
   24.7983  -14.6073    0.0000 C   0  0  0  0  0  0  0  0  0  0  0  0
    4.0414   -5.7874    0.0000 C   0  0  0  0  0  0  0  0  0  0  0  0
    2.5382   -5.8249    0.0000 C   0  0  0  0  0  0  0  0  0  0  0  0
    3.2490   -4.5040    0.0000 O   0  0  0  0  0  0  0  0  0  0  0  0
    2.6595   -3.1247    0.0000 C   0  0  0  0  0  0  0  0  0  0  0  0
    3.6464   -1.9951    0.0000 C   0  0  0  0  0  0  0  0  0  0  0  0
    1.2135   -2.7256    0.0000 N   0  0  0  0  0  0  0  0  0  0  0  0
    0.7500   -1.2990    0.0000 C   0  0  0  0  0  0  0  0  0  0  0  0
    1.5000    0.0000    0.0000 C   0  0  0  0  0  0  0  0  0  0  0  0
    0.7500    1.2990    0.0000 C   0  0  0  0  0  0  0  0  0  0  0  0
   -0.7500    1.2990    0.0000 C   0  0  0  0  0  0  0  0  0  0  0  0
   -1.5000    0.0000    0.0000 C   0  0  0  0  0  0  0  0  0  0  0  0
   -0.7500   -1.2990    0.0000 C   0  0  0  0  0  0  0  0  0  0  0  0
   -1.2135   -2.7256    0.0000 C   0  0  0  0  0  0  0  0  0  0  0  0
   -2.5518   -3.5691    0.0000 C   0  0  0  0  0  0  0  0  0  0  0  0
   -2.6191   -5.0676    0.0000 C   0  0  0  0  0  0  0  0  0  0  0  0
   -1.3550   -5.8751    0.0000 C   0  0  0  0  0  0  0  0  0  0  0  0
   -1.0212   -7.3375    0.0000 C   0  0  0  0  0  0  0  0  0  0  0  0
   -1.8846   -8.5641    0.0000 C   0  0  0  0  0  0  0  0  0  0  0  0
   -1.2541   -9.9251    0.0000 C   0  0  0  0  0  0  0  0  0  0  0  0
    0.2399  -10.0596    0.0000 C   0  0  0  0  0  0  0  0  0  0  0  0
    1.1033   -8.8330    0.0000 C   0  0  0  0  0  0  0  0  0  0  0  0
    0.4728   -7.4720    0.0000 C   0  0  0  0  0  0  0  0  0  0  0  0
    1.0623   -6.0927    0.0000 N   0  0  0  0  0  0  0  0  0  0  0  0
   -0.0673   -5.1058    0.0000 C   0  0  0  0  0  0  0  0  0  0  0  0
   -0.0000   -3.6073    0.0000 C   0  0  0  0  0  0  0  0  0  0  0  0
   -4.0650   -5.4667    0.0000 C   0  0  0  0  0  0  0  0  0  0  0  0
   -4.5921   -6.8710    0.0000 O   0  0  0  0  0  0  0  0  0  0  0  0
   -4.8913   -4.2148    0.0000 N   0  0  0  0  0  0  0  0  0  0  0  0
   -3.9561   -3.0421    0.0000 C   0  0  0  0  0  0  0  0  0  0  0  0
  1  2  1  0
  3  2  1  6
  3  4  1  0
  4  5  1  6
  5  6  1  0
  6  7  1  0
  7  8  1  0
  8  9  1  0
  9 10  1  0
 10 11  1  0
 11 12  1  0
 12 13  1  0
 13 14  1  0
 14 15  1  0
 15 16  1  0
 16 17  1  0
 17 18  1  0
 18 19  2  0
 18 20  1  0
 20 21  1  0
 21 22  1  0
 22 23  2  0
 23 24  1  0
 24 25  2  0
 25 26  1  0
 26 27  2  0
 27 28  1  0
 27 29  1  0
 29 30  2  0
 30 31  1  0
 30 32  1  0
 32 33  1  0
 33 34  1  0
 33 35  1  0
 24 36  1  0
 36 37  2  0
  4 38  1  0
 39 38  1  6
 39 40  1  0
 40 41  1  0
 41 42  1  1
 41 43  1  0
 43 44  1  0
 44 45  2  0
 45 46  1  0
 46 47  2  0
 47 48  1  0
 48 49  2  0
 49 50  1  0
 50 51  2  0
 51 52  1  0
 52 53  2  0
 53 54  1  0
 54 55  2  0
 55 56  1  0
 56 57  2  0
 57 58  1  0
 58 59  2  0
 59 60  1  0
 60 61  1  0
 61 62  2  0
 52 63  1  0
 63 64  2  0
 63 65  1  0
 65 66  1  0
 41  3  1  0
 62 43  1  0
 37 22  1  0
 60 39  1  0
 33 23  1  0
 49 44  1  0
 62 50  1  0
 32 26  1  0
 66 51  1  0
 61 53  1  0
 59 54  1  0
M  CHG  2  23   1  33  -1
M  END
>  <Molecule ChEMBL ID>  (17) 
CHEMBL4465866

>  <Standard Type>  (17) 
Kd

>  <activity>  (17) 
107

>  <Standard Units>  (17) 
nM

>  <activity_sd>  (17) 
NA

>  <p_activity>  (17) 
6.971

$$$$
CHEMBL2103839
     RDKit          2D

 69 72  0  0  0  0  0  0  0  0999 V2000
    9.2437   -7.3954    0.0000 C   0  0  0  0  0  0  0  0  0  0  0  0
    8.4244   -8.6519    0.0000 O   0  0  0  0  0  0  0  0  0  0  0  0
    6.9266   -8.5707    0.0000 C   0  0  0  0  0  0  0  0  0  0  0  0
    6.8454   -7.0729    0.0000 C   0  0  0  0  0  0  0  0  0  0  0  0
    6.4441   -5.6276    0.0000 C   0  0  0  0  0  0  0  0  0  0  0  0
    7.4700   -4.4677    0.0000 C   0  0  0  0  0  0  0  0  0  0  0  0
    7.3617   -2.9716    0.0000 C   0  0  0  0  0  0  0  0  0  0  0  0
    6.0120   -2.3173    0.0000 C   0  0  0  0  0  0  0  0  0  0  0  0
    5.9037   -0.8212    0.0000 C   0  0  0  0  0  0  0  0  0  0  0  0
    4.7704   -3.1591    0.0000 C   0  0  0  0  0  0  0  0  0  0  0  0
    5.2059   -2.3878    0.0000 O   0  0  0  0  0  0  0  0  0  0  0  0
    5.7415   -4.3023    0.0000 O   0  0  0  0  0  0  0  0  0  0  0  0
    3.5763   -2.2513    0.0000 C   0  0  0  0  0  0  0  0  0  0  0  0
    4.3496   -0.9660    0.0000 O   0  0  0  0  0  0  0  0  0  0  0  0
    2.2149   -1.6215    0.0000 C   0  0  0  0  0  0  0  0  0  0  0  0
    2.6939   -0.2000    0.0000 O   0  0  0  0  0  0  0  0  0  0  0  0
    0.7500   -1.2990    0.0000 N   0  0  0  0  0  0  0  0  0  0  0  0
    1.5000    0.0000    0.0000 C   0  0  0  0  0  0  0  0  0  0  0  0
    0.7500    1.2990    0.0000 C   0  0  0  0  0  0  0  0  0  0  0  0
   -0.7500    1.2990    0.0000 C   0  0  0  0  0  0  0  0  0  0  0  0
   -1.5000    0.0000    0.0000 C   0  0  0  0  0  0  0  0  0  0  0  0
   -0.7500   -1.2990    0.0000 C   0  0  0  0  0  0  0  0  0  0  0  0
   -2.2149   -1.6215    0.0000 C   0  0  0  0  0  0  0  0  0  0  0  0
   -2.6939   -0.2000    0.0000 O   0  0  0  0  0  0  0  0  0  0  0  0
   -3.5763   -2.2513    0.0000 O   0  0  0  0  0  0  0  0  0  0  0  0
   -4.7704   -3.1591    0.0000 C   0  0  0  0  0  0  0  0  0  0  0  0
   -5.8020   -2.0701    0.0000 C   0  0  0  0  0  0  0  0  0  0  0  0
   -5.3747   -0.6323    0.0000 C   0  0  0  0  0  0  0  0  0  0  0  0
   -7.2609   -2.4189    0.0000 C   0  0  0  0  0  0  0  0  0  0  0  0
   -8.2924   -1.3300    0.0000 C   0  0  0  0  0  0  0  0  0  0  0  0
   -7.8651    0.1079    0.0000 C   0  0  0  0  0  0  0  0  0  0  0  0
   -8.8966    1.1969    0.0000 C   0  0  0  0  0  0  0  0  0  0  0  0
  -10.3555    0.8480    0.0000 C   0  0  0  0  0  0  0  0  0  0  0  0
  -11.3870    1.9370    0.0000 O   0  0  0  0  0  0  0  0  0  0  0  0
  -10.9597    3.3749    0.0000 P   0  0  0  0  0  0  0  0  0  0  0  0
  -12.3976    3.8022    0.0000 C   0  0  0  0  0  0  0  0  0  0  0  0
   -9.5219    2.9475    0.0000 C   0  0  0  0  0  0  0  0  0  0  0  0
  -10.5324    4.8127    0.0000 O   0  0  0  0  0  0  0  0  0  0  0  0
  -10.7828   -0.5898    0.0000 C   0  0  0  0  0  0  0  0  0  0  0  0
  -12.2417   -0.9387    0.0000 O   0  0  0  0  0  0  0  0  0  0  0  0
  -12.6690   -2.3765    0.0000 C   0  0  0  0  0  0  0  0  0  0  0  0
   -9.7513   -1.6788    0.0000 C   0  0  0  0  0  0  0  0  0  0  0  0
   -5.7415   -4.3023    0.0000 C   0  0  0  0  0  0  0  0  0  0  0  0
   -6.4441   -5.6276    0.0000 C   0  0  0  0  0  0  0  0  0  0  0  0
   -7.8376   -5.0724    0.0000 O   0  0  0  0  0  0  0  0  0  0  0  0
   -6.8454   -7.0729    0.0000 C   0  0  0  0  0  0  0  0  0  0  0  0
   -8.3432   -7.1541    0.0000 C   0  0  0  0  0  0  0  0  0  0  0  0
   -6.6027   -8.5532    0.0000 C   0  0  0  0  0  0  0  0  0  0  0  0
   -6.6840  -10.0510    0.0000 C   0  0  0  0  0  0  0  0  0  0  0  0
   -8.1293  -10.4523    0.0000 C   0  0  0  0  0  0  0  0  0  0  0  0
   -6.1287  -11.4444    0.0000 C   0  0  0  0  0  0  0  0  0  0  0  0
   -7.4540  -12.1470    0.0000 O   0  0  0  0  0  0  0  0  0  0  0  0
   -5.2870  -12.6860    0.0000 C   0  0  0  0  0  0  0  0  0  0  0  0
   -6.4302  -13.6570    0.0000 O   0  0  0  0  0  0  0  0  0  0  0  0
   -6.1609  -15.1327    0.0000 C   0  0  0  0  0  0  0  0  0  0  0  0
   -4.1980  -13.7175    0.0000 C   0  0  0  0  0  0  0  0  0  0  0  0
   -5.1057  -14.9117    0.0000 O   0  0  0  0  0  0  0  0  0  0  0  0
   -2.9127  -14.4908    0.0000 C   0  0  0  0  0  0  0  0  0  0  0  0
   -3.5425  -15.8522    0.0000 C   0  0  0  0  0  0  0  0  0  0  0  0
   -1.4912  -14.9698    0.0000 C   0  0  0  0  0  0  0  0  0  0  0  0
    0.0000  -15.1320    0.0000 C   0  0  0  0  0  0  0  0  0  0  0  0
    0.3225  -16.5969    0.0000 C   0  0  0  0  0  0  0  0  0  0  0  0
    1.4215  -14.6530    0.0000 C   0  0  0  0  0  0  0  0  0  0  0  0
    2.9127  -14.4908    0.0000 C   0  0  0  0  0  0  0  0  0  0  0  0
    4.0017  -13.4593    0.0000 C   0  0  0  0  0  0  0  0  0  0  0  0
    5.2870  -12.6860    0.0000 C   0  0  0  0  0  0  0  0  0  0  0  0
    5.8422  -11.2925    0.0000 C   0  0  0  0  0  0  0  0  0  0  0  0
    6.6840  -10.0510    0.0000 C   0  0  0  0  0  0  0  0  0  0  0  0
    8.1293  -10.4523    0.0000 C   0  0  0  0  0  0  0  0  0  0  0  0
  1  2  1  0
  3  2  1  6
  3  4  1  0
  5  4  1  1
  5  6  1  0
  6  7  1  0
  7  8  1  0
  8  9  1  6
  8 10  1  0
 10 11  1  6
 10 12  1  0
 10 13  1  0
 13 14  2  0
 13 15  1  0
 15 16  2  0
 15 17  1  0
 17 18  1  0
 18 19  1  0
 19 20  1  0
 20 21  1  0
 22 21  1  6
 22 23  1  0
 23 24  2  0
 23 25  1  0
 25 26  1  0
 26 27  1  0
 27 28  1  1
 27 29  1  0
 30 29  1  1
 30 31  1  0
 31 32  1  0
 32 33  1  0
 33 34  1  6
 34 35  1  0
 35 36  1  0
 35 37  1  0
 35 38  2  0
 33 39  1  0
 39 40  1  1
 40 41  1  0
 39 42  1  0
 26 43  1  1
 43 44  1  0
 44 45  2  0
 44 46  1  0
 46 47  1  1
 46 48  1  0
 48 49  2  0
 49 50  1  0
 49 51  1  0
 51 52  1  6
 51 53  1  0
 53 54  1  6
 54 55  1  0
 53 56  1  0
 56 57  2  0
 56 58  1  0
 58 59  1  1
 58 60  1  0
 60 61  1  0
 61 62  1  1
 61 63  1  0
 63 64  2  0
 64 65  1  0
 65 66  2  0
 66 67  1  0
 67 68  2  0
 68 69  1  0
 68  3  1  0
 12  5  1  0
 22 17  1  0
 42 30  1  0
M  END
>  <Molecule ChEMBL ID>  (18) 
CHEMBL2103839

>  <Standard Type>  (18) 
Kd

>  <activity>  (18) 
1262

>  <Standard Units>  (18) 
nM

>  <activity_sd>  (18) 
NA

>  <p_activity>  (18) 
5.899

$$$$
CHEMBL509032
     RDKit          2D

 42 46  0  0  0  0  0  0  0  0999 V2000
    3.7500   -1.2990    0.0000 C   0  0  0  0  0  0  0  0  0  0  0  0
    3.0000    0.0000    0.0000 O   0  0  0  0  0  0  0  0  0  0  0  0
    1.5000    0.0000    0.0000 C   0  0  0  0  0  0  0  0  0  0  0  0
    0.7500   -1.2990    0.0000 C   0  0  0  0  0  0  0  0  0  0  0  0
   -0.7500   -1.2990    0.0000 C   0  0  0  0  0  0  0  0  0  0  0  0
   -1.5000   -2.5981    0.0000 N   0  0  0  0  0  0  0  0  0  0  0  0
   -3.0000   -2.5981    0.0000 C   0  0  0  0  0  0  0  0  0  0  0  0
   -3.7500   -3.8971    0.0000 C   0  0  0  0  0  0  0  0  0  0  0  0
   -3.0000   -5.1962    0.0000 C   0  0  0  0  0  0  0  0  0  0  0  0
   -3.7500   -6.4952    0.0000 N   0  0  0  0  0  0  0  0  0  0  0  0
   -5.2500   -6.4952    0.0000 C   0  0  0  0  0  0  0  0  0  0  0  0
   -6.0000   -7.7942    0.0000 C   0  0  0  0  0  0  0  0  0  0  0  0
   -5.2500   -9.0933    0.0000 N   0  0  0  0  0  0  0  0  0  0  0  0
   -6.0000  -10.3923    0.0000 C   0  0  0  0  0  0  0  0  0  0  0  0
   -3.7500   -9.0933    0.0000 C   0  0  0  0  0  0  0  0  0  0  0  0
   -3.0000   -7.7942    0.0000 C   0  0  0  0  0  0  0  0  0  0  0  0
   -1.5000   -5.1962    0.0000 C   0  0  0  0  0  0  0  0  0  0  0  0
   -0.7500   -3.8971    0.0000 C   0  0  0  0  0  0  0  0  0  0  0  0
   -1.5000    0.0000    0.0000 C   0  0  0  0  0  0  0  0  0  0  0  0
   -0.7500    1.2990    0.0000 C   0  0  0  0  0  0  0  0  0  0  0  0
    0.7500    1.2990    0.0000 C   0  0  0  0  0  0  0  0  0  0  0  0
    1.5000    2.5981    0.0000 N   0  0  0  0  0  0  0  0  0  0  0  0
    3.0000    2.5981    0.0000 C   0  0  0  0  0  0  0  0  0  0  0  0
    3.7500    1.2990    0.0000 N   0  0  0  0  0  0  0  0  0  0  0  0
    5.2500    1.2990    0.0000 C   0  0  0  0  0  0  0  0  0  0  0  0
    6.0000    2.5981    0.0000 C   0  0  0  0  0  0  0  0  0  0  0  0
    7.5000    2.5981    0.0000 Cl  0  0  0  0  0  0  0  0  0  0  0  0
    5.2500    3.8971    0.0000 C   0  0  0  0  0  0  0  0  0  0  0  0
    6.0000    5.1962    0.0000 N   0  0  0  0  0  0  0  0  0  0  0  0
    5.2500    6.4952    0.0000 C   0  0  0  0  0  0  0  0  0  0  0  0
    3.7500    6.4952    0.0000 C   0  0  0  0  0  0  0  0  0  0  0  0
    3.0000    7.7942    0.0000 C   0  0  0  0  0  0  0  0  0  0  0  0
    3.7500    9.0933    0.0000 C   0  0  0  0  0  0  0  0  0  0  0  0
    5.2500    9.0933    0.0000 C   0  0  0  0  0  0  0  0  0  0  0  0
    6.0000    7.7942    0.0000 C   0  0  0  0  0  0  0  0  0  0  0  0
    7.5000    7.7942    0.0000 S   0  0  0  0  0  0  0  0  0  0  0  0
    7.5000    6.2942    0.0000 O   0  0  0  0  0  0  0  0  0  0  0  0
    7.5000    9.2942    0.0000 O   0  0  0  0  0  0  0  0  0  0  0  0
    9.0000    7.7942    0.0000 C   0  0  0  0  0  0  0  0  0  0  0  0
    9.7500    9.0933    0.0000 C   0  0  0  0  0  0  0  0  0  0  0  0
    9.7500    6.4952    0.0000 C   0  0  0  0  0  0  0  0  0  0  0  0
    3.7500    3.8971    0.0000 N   0  0  0  0  0  0  0  0  0  0  0  0
  1  2  1  0
  2  3  1  0
  3  4  2  0
  4  5  1  0
  5  6  1  0
  6  7  1  0
  7  8  1  0
  8  9  1  0
  9 10  1  0
 10 11  1  0
 11 12  1  0
 12 13  1  0
 13 14  1  0
 13 15  1  0
 15 16  1  0
  9 17  1  0
 17 18  1  0
  5 19  2  0
 19 20  1  0
 20 21  2  0
 21 22  1  0
 22 23  1  0
 23 24  2  0
 24 25  1  0
 25 26  2  0
 26 27  1  0
 26 28  1  0
 28 29  1  0
 29 30  1  0
 30 31  2  0
 31 32  1  0
 32 33  2  0
 33 34  1  0
 34 35  2  0
 35 36  1  0
 36 37  2  0
 36 38  2  0
 36 39  1  0
 39 40  1  0
 39 41  1  0
 28 42  2  0
 21  3  1  0
 42 23  1  0
 18  6  1  0
 35 30  1  0
 16 10  1  0
M  END
>  <Molecule ChEMBL ID>  (19) 
CHEMBL509032

>  <Standard Type>  (19) 
Kd

>  <activity>  (19) 
4500

>  <Standard Units>  (19) 
nM

>  <activity_sd>  (19) 
NA

>  <p_activity>  (19) 
5.347

$$$$
CHEMBL384304
     RDKit          2D

 30 32  0  0  0  0  0  0  0  0999 V2000
    3.7500   -1.2990    0.0000 C   0  0  0  0  0  0  0  0  0  0  0  0
    3.0000    0.0000    0.0000 O   0  0  0  0  0  0  0  0  0  0  0  0
    1.5000    0.0000    0.0000 C   0  0  0  0  0  0  0  0  0  0  0  0
    0.7500   -1.2990    0.0000 C   0  0  0  0  0  0  0  0  0  0  0  0
   -0.7500   -1.2990    0.0000 C   0  0  0  0  0  0  0  0  0  0  0  0
   -1.5000    0.0000    0.0000 C   0  0  0  0  0  0  0  0  0  0  0  0
   -3.0000    0.0000    0.0000 F   0  0  0  0  0  0  0  0  0  0  0  0
   -0.7500    1.2990    0.0000 C   0  0  0  0  0  0  0  0  0  0  0  0
   -1.5000    2.5981    0.0000 F   0  0  0  0  0  0  0  0  0  0  0  0
    0.7500    1.2990    0.0000 C   0  0  0  0  0  0  0  0  0  0  0  0
    1.5000    2.5981    0.0000 C   0  0  0  0  0  0  0  0  0  0  0  0
    0.7500    3.8971    0.0000 O   0  0  0  0  0  0  0  0  0  0  0  0
    3.0000    2.5981    0.0000 C   0  0  0  0  0  0  0  0  0  0  0  0
    3.7500    1.2990    0.0000 C   0  0  0  0  0  0  0  0  0  0  0  0
    5.2500    1.2990    0.0000 N   0  0  0  0  0  0  0  0  0  0  0  0
    6.0000    2.5981    0.0000 C   0  0  0  0  0  0  0  0  0  0  0  0
    7.5000    2.5981    0.0000 N   0  0  0  0  0  0  0  0  0  0  0  0
    8.2500    1.2990    0.0000 C   0  0  0  0  0  0  0  0  0  0  0  0
    7.5000   -0.0000    0.0000 C   0  0  0  0  0  0  0  0  0  0  0  0
    8.2500   -1.2990    0.0000 C   0  0  0  0  0  0  0  0  0  0  0  0
    9.7500   -1.2990    0.0000 N   0  0  0  0  0  0  0  0  0  0  0  0
   10.5000   -2.5981    0.0000 S   0  0  0  0  0  0  0  0  0  0  0  0
   11.2500   -3.8971    0.0000 C   0  0  0  0  0  0  0  0  0  0  0  0
   11.7990   -1.8481    0.0000 O   0  0  0  0  0  0  0  0  0  0  0  0
    9.2010   -3.3481    0.0000 O   0  0  0  0  0  0  0  0  0  0  0  0
   10.5000   -0.0000    0.0000 C   0  0  0  0  0  0  0  0  0  0  0  0
    9.7500    1.2990    0.0000 C   0  0  0  0  0  0  0  0  0  0  0  0
    5.2500    3.8971    0.0000 N   0  0  0  0  0  0  0  0  0  0  0  0
    3.7500    3.8971    0.0000 C   0  0  0  0  0  0  0  0  0  0  0  0
    3.0000    5.1962    0.0000 N   0  0  0  0  0  0  0  0  0  0  0  0
  1  2  1  0
  2  3  1  0
  3  4  2  0
  4  5  1  0
  5  6  2  0
  6  7  1  0
  6  8  1  0
  8  9  1  0
  8 10  2  0
 10 11  1  0
 11 12  2  0
 11 13  1  0
 13 14  2  0
 14 15  1  0
 15 16  2  0
 16 17  1  0
 17 18  1  0
 18 19  1  0
 19 20  1  0
 20 21  1  0
 21 22  1  0
 22 23  1  0
 22 24  2  0
 22 25  2  0
 21 26  1  0
 26 27  1  0
 16 28  1  0
 28 29  2  0
 29 30  1  0
 10  3  1  0
 29 13  1  0
 27 18  1  0
M  END
>  <Molecule ChEMBL ID>  (20) 
CHEMBL384304

>  <Standard Type>  (20) 
Kd

>  <activity>  (20) 
250

>  <Standard Units>  (20) 
nM

>  <activity_sd>  (20) 
NA

>  <p_activity>  (20) 
6.602

$$$$
CHEMBL521851
     RDKit          2D

 35 40  0  0  0  0  0  0  0  0999 V2000
    8.1939    4.1994    0.0000 C   0  0  0  0  0  0  0  0  0  0  0  0
    6.7267    3.8876    0.0000 S   0  0  0  0  0  0  0  0  0  0  0  0
    6.4148    5.3548    0.0000 O   0  0  0  0  0  0  0  0  0  0  0  0
    7.0386    2.4204    0.0000 O   0  0  0  0  0  0  0  0  0  0  0  0
    5.2595    3.5757    0.0000 N   0  0  0  0  0  0  0  0  0  0  0  0
    4.7960    2.1491    0.0000 C   0  0  0  0  0  0  0  0  0  0  0  0
    3.3287    1.8373    0.0000 C   0  0  0  0  0  0  0  0  0  0  0  0
    2.3250    2.9520    0.0000 N   0  0  0  0  0  0  0  0  0  0  0  0
    0.8578    2.6401    0.0000 C   0  0  0  0  0  0  0  0  0  0  0  0
    0.3943    1.2135    0.0000 C   0  0  0  0  0  0  0  0  0  0  0  0
    1.2760    0.0000    0.0000 C   0  0  0  0  0  0  0  0  0  0  0  0
    0.3943   -1.2135    0.0000 C   0  0  0  0  0  0  0  0  0  0  0  0
    0.7062   -2.6807    0.0000 N   0  0  0  0  0  0  0  0  0  0  0  0
   -0.4086   -3.6844    0.0000 C   0  0  0  0  0  0  0  0  0  0  0  0
   -0.0967   -5.1517    0.0000 C   0  0  0  0  0  0  0  0  0  0  0  0
   -1.2114   -6.1554    0.0000 C   0  0  0  0  0  0  0  0  0  0  0  0
   -0.8995   -7.6226    0.0000 C   0  0  0  0  0  0  0  0  0  0  0  0
    0.5271   -8.0861    0.0000 C   0  0  0  0  0  0  0  0  0  0  0  0
    1.6418   -7.0824    0.0000 C   0  0  0  0  0  0  0  0  0  0  0  0
    3.1336   -7.2392    0.0000 N   0  0  0  0  0  0  0  0  0  0  0  0
    3.7437   -5.8689    0.0000 N   0  0  0  0  0  0  0  0  0  0  0  0
    2.6289   -4.8652    0.0000 C   0  0  0  0  0  0  0  0  0  0  0  0
    1.3299   -5.6152    0.0000 C   0  0  0  0  0  0  0  0  0  0  0  0
   -1.8351   -3.2209    0.0000 N   0  0  0  0  0  0  0  0  0  0  0  0
   -2.1470   -1.7537    0.0000 C   0  0  0  0  0  0  0  0  0  0  0  0
   -3.5736   -1.2902    0.0000 N   0  0  0  0  0  0  0  0  0  0  0  0
   -3.8855    0.1771    0.0000 C   0  0  0  0  0  0  0  0  0  0  0  0
   -5.3120    0.6406    0.0000 C   0  0  0  0  0  0  0  0  0  0  0  0
   -6.4268   -0.3631    0.0000 O   0  0  0  0  0  0  0  0  0  0  0  0
   -6.1149   -1.8303    0.0000 C   0  0  0  0  0  0  0  0  0  0  0  0
   -4.6883   -2.2939    0.0000 C   0  0  0  0  0  0  0  0  0  0  0  0
   -1.0323   -0.7500    0.0000 C   0  0  0  0  0  0  0  0  0  0  0  0
   -1.0323    0.7500    0.0000 S   0  0  0  0  0  0  0  0  0  0  0  0
    2.7886    4.3786    0.0000 C   0  0  0  0  0  0  0  0  0  0  0  0
    4.2558    4.6904    0.0000 C   0  0  0  0  0  0  0  0  0  0  0  0
  1  2  1  0
  2  3  2  0
  2  4  2  0
  2  5  1  0
  5  6  1  0
  6  7  1  0
  7  8  1  0
  8  9  1  0
  9 10  1  0
 10 11  2  0
 11 12  1  0
 12 13  2  0
 13 14  1  0
 14 15  1  0
 15 16  2  0
 16 17  1  0
 17 18  2  0
 18 19  1  0
 19 20  1  0
 20 21  1  0
 21 22  2  0
 22 23  1  0
 14 24  2  0
 24 25  1  0
 25 26  1  0
 26 27  1  0
 27 28  1  0
 28 29  1  0
 29 30  1  0
 30 31  1  0
 25 32  2  0
 32 33  1  0
  8 34  1  0
 34 35  1  0
 35  5  1  0
 33 10  1  0
 32 12  1  0
 23 15  1  0
 31 26  1  0
 23 19  2  0
M  END
>  <Molecule ChEMBL ID>  (21) 
CHEMBL521851

>  <Standard Type>  (21) 
Kd

>  <activity>  (21) 
3800

>  <Standard Units>  (21) 
nM

>  <activity_sd>  (21) 
NA

>  <p_activity>  (21) 
5.42

$$$$
CHEMBL603469
     RDKit          2D

 33 40  0  0  0  0  0  0  0  0999 V2000
    3.4199   -7.0384    0.0000 C   0  0  0  0  0  0  0  0  0  0  0  0
    2.5382   -5.8249    0.0000 C   0  0  0  0  0  0  0  0  0  0  0  0
    3.2490   -4.5040    0.0000 O   0  0  0  0  0  0  0  0  0  0  0  0
    2.6595   -3.1247    0.0000 C   0  0  0  0  0  0  0  0  0  0  0  0
    4.0638   -3.6517    0.0000 C   0  0  0  0  0  0  0  0  0  0  0  0
    3.9965   -5.1502    0.0000 C   0  0  0  0  0  0  0  0  0  0  0  0
    4.2423   -6.6300    0.0000 O   0  0  0  0  0  0  0  0  0  0  0  0
    5.4938   -5.0605    0.0000 C   0  0  0  0  0  0  0  0  0  0  0  0
    6.3202   -6.3124    0.0000 O   0  0  0  0  0  0  0  0  0  0  0  0
    1.2135   -2.7256    0.0000 N   0  0  0  0  0  0  0  0  0  0  0  0
    0.7500   -1.2990    0.0000 C   0  0  0  0  0  0  0  0  0  0  0  0
    1.5000    0.0000    0.0000 C   0  0  0  0  0  0  0  0  0  0  0  0
    0.7500    1.2990    0.0000 C   0  0  0  0  0  0  0  0  0  0  0  0
   -0.7500    1.2990    0.0000 C   0  0  0  0  0  0  0  0  0  0  0  0
   -1.5000    0.0000    0.0000 C   0  0  0  0  0  0  0  0  0  0  0  0
   -0.7500   -1.2990    0.0000 C   0  0  0  0  0  0  0  0  0  0  0  0
   -1.2135   -2.7256    0.0000 C   0  0  0  0  0  0  0  0  0  0  0  0
   -2.5518   -3.5691    0.0000 C   0  0  0  0  0  0  0  0  0  0  0  0
   -2.6191   -5.0676    0.0000 C   0  0  0  0  0  0  0  0  0  0  0  0
   -1.3550   -5.8751    0.0000 C   0  0  0  0  0  0  0  0  0  0  0  0
   -1.0212   -7.3375    0.0000 C   0  0  0  0  0  0  0  0  0  0  0  0
   -1.8846   -8.5641    0.0000 C   0  0  0  0  0  0  0  0  0  0  0  0
   -1.2541   -9.9251    0.0000 C   0  0  0  0  0  0  0  0  0  0  0  0
    0.2399  -10.0596    0.0000 C   0  0  0  0  0  0  0  0  0  0  0  0
    1.1033   -8.8330    0.0000 C   0  0  0  0  0  0  0  0  0  0  0  0
    0.4728   -7.4720    0.0000 C   0  0  0  0  0  0  0  0  0  0  0  0
    1.0623   -6.0927    0.0000 N   0  0  0  0  0  0  0  0  0  0  0  0
   -0.0673   -5.1058    0.0000 C   0  0  0  0  0  0  0  0  0  0  0  0
   -0.0000   -3.6073    0.0000 C   0  0  0  0  0  0  0  0  0  0  0  0
   -4.0650   -5.4667    0.0000 C   0  0  0  0  0  0  0  0  0  0  0  0
   -4.8913   -4.2148    0.0000 N   0  0  0  0  0  0  0  0  0  0  0  0
   -3.9561   -3.0421    0.0000 C   0  0  0  0  0  0  0  0  0  0  0  0
   -4.3552   -1.5961    0.0000 O   0  0  0  0  0  0  0  0  0  0  0  0
  2  1  1  6
  2  3  1  0
  3  4  1  0
  4  5  1  1
  5  6  1  0
  6  7  1  1
  6  8  1  0
  8  9  1  0
  4 10  1  0
 10 11  1  0
 11 12  2  0
 12 13  1  0
 13 14  2  0
 14 15  1  0
 15 16  2  0
 16 17  1  0
 17 18  2  0
 18 19  1  0
 19 20  2  0
 20 21  1  0
 21 22  2  0
 22 23  1  0
 23 24  2  0
 24 25  1  0
 25 26  2  0
 26 27  1  0
 27 28  1  0
 28 29  2  0
 19 30  1  0
 30 31  1  0
 31 32  1  0
 32 33  2  0
  6  2  1  0
 29 10  1  0
 27  2  1  0
 16 11  1  0
 29 17  1  0
 32 18  1  0
 28 20  1  0
 26 21  1  0
M  END
>  <Molecule ChEMBL ID>  (22) 
CHEMBL603469

>  <Standard Type>  (22) 
Kd

>  <activity>  (22) 
29

>  <Standard Units>  (22) 
nM

>  <activity_sd>  (22) 
0

>  <p_activity>  (22) 
7.538

$$$$
CHEMBL1721885
     RDKit          2D

 32 35  0  0  0  0  0  0  0  0999 V2000
   -2.0882   -8.4404    0.0000 C   0  0  0  0  0  0  0  0  0  0  0  0
   -2.6983   -7.0701    0.0000 C   0  0  0  0  0  0  0  0  0  0  0  0
   -1.9483   -5.7711    0.0000 N   0  0  0  0  0  0  0  0  0  0  0  0
   -2.9520   -4.6564    0.0000 C   0  0  0  0  0  0  0  0  0  0  0  0
   -2.6401   -3.1891    0.0000 C   0  0  0  0  0  0  0  0  0  0  0  0
   -1.2135   -2.7256    0.0000 C   0  0  0  0  0  0  0  0  0  0  0  0
   -0.0000   -3.6073    0.0000 C   0  0  0  0  0  0  0  0  0  0  0  0
    0.0000   -5.1073    0.0000 O   0  0  0  0  0  0  0  0  0  0  0  0
    1.2135   -2.7256    0.0000 N   0  0  0  0  0  0  0  0  0  0  0  0
    0.7500   -1.2990    0.0000 C   0  0  0  0  0  0  0  0  0  0  0  0
    1.5000    0.0000    0.0000 C   0  0  0  0  0  0  0  0  0  0  0  0
    0.7500    1.2990    0.0000 C   0  0  0  0  0  0  0  0  0  0  0  0
   -0.7500    1.2990    0.0000 C   0  0  0  0  0  0  0  0  0  0  0  0
   -1.5000    2.5981    0.0000 F   0  0  0  0  0  0  0  0  0  0  0  0
   -1.5000    0.0000    0.0000 C   0  0  0  0  0  0  0  0  0  0  0  0
   -0.7500   -1.2990    0.0000 C   0  0  0  0  0  0  0  0  0  0  0  0
   -4.3223   -5.2665    0.0000 C   0  0  0  0  0  0  0  0  0  0  0  0
   -5.6213   -4.5165    0.0000 C   0  0  0  0  0  0  0  0  0  0  0  0
   -4.1655   -6.7583    0.0000 C   0  0  0  0  0  0  0  0  0  0  0  0
   -5.2802   -7.7620    0.0000 C   0  0  0  0  0  0  0  0  0  0  0  0
   -4.9684   -9.2292    0.0000 O   0  0  0  0  0  0  0  0  0  0  0  0
   -6.7068   -7.2984    0.0000 N   0  0  0  0  0  0  0  0  0  0  0  0
   -7.8215   -8.3021    0.0000 C   0  0  0  0  0  0  0  0  0  0  0  0
   -9.2481   -7.8386    0.0000 C   0  0  0  0  0  0  0  0  0  0  0  0
   -9.5600   -6.3714    0.0000 O   0  0  0  0  0  0  0  0  0  0  0  0
  -10.3628   -8.8423    0.0000 C   0  0  0  0  0  0  0  0  0  0  0  0
  -11.7894   -8.3788    0.0000 N   0  0  0  0  0  0  0  0  0  0  0  0
  -12.1013   -6.9115    0.0000 C   0  0  0  0  0  0  0  0  0  0  0  0
  -13.5279   -6.4480    0.0000 C   0  0  0  0  0  0  0  0  0  0  0  0
  -14.6426   -7.4517    0.0000 O   0  0  0  0  0  0  0  0  0  0  0  0
  -14.3307   -8.9189    0.0000 C   0  0  0  0  0  0  0  0  0  0  0  0
  -12.9041   -9.3825    0.0000 C   0  0  0  0  0  0  0  0  0  0  0  0
  1  2  1  0
  2  3  1  0
  3  4  1  0
  4  5  1  0
  5  6  2  0
  6  7  1  0
  7  8  2  0
  7  9  1  0
  9 10  1  0
 10 11  2  0
 11 12  1  0
 12 13  2  0
 13 14  1  0
 13 15  1  0
 15 16  2  0
  4 17  2  0
 17 18  1  0
 17 19  1  0
 19 20  1  0
 20 21  2  0
 20 22  1  0
 22 23  1  0
 23 24  1  0
 24 25  1  1
 24 26  1  0
 26 27  1  0
 27 28  1  0
 28 29  1  0
 29 30  1  0
 30 31  1  0
 31 32  1  0
 19  2  2  0
 32 27  1  0
 16  6  1  0
 16 10  1  0
M  END
>  <Molecule ChEMBL ID>  (23) 
CHEMBL1721885

>  <Standard Type>  (23) 
Kd

>  <activity>  (23) 
2600

>  <Standard Units>  (23) 
nM

>  <activity_sd>  (23) 
0

>  <p_activity>  (23) 
5.585

$$$$
CHEMBL1287853
     RDKit          2D

 37 40  0  0  0  0  0  0  0  0999 V2000
    3.0000    0.0000    0.0000 C   0  0  0  0  0  0  0  0  0  0  0  0
    1.5000    0.0000    0.0000 C   0  0  0  0  0  0  0  0  0  0  0  0
    0.7500   -1.2990    0.0000 C   0  0  0  0  0  0  0  0  0  0  0  0
   -0.7500   -1.2990    0.0000 N   0  0  0  0  0  0  0  0  0  0  0  0
   -1.5000    0.0000    0.0000 C   0  0  0  0  0  0  0  0  0  0  0  0
   -3.0000    0.0000    0.0000 N   0  0  0  0  0  0  0  0  0  0  0  0
   -3.7500    1.2990    0.0000 C   0  0  0  0  0  0  0  0  0  0  0  0
   -3.0000    2.5981    0.0000 C   0  0  0  0  0  0  0  0  0  0  0  0
   -3.7500    3.8971    0.0000 C   0  0  0  0  0  0  0  0  0  0  0  0
   -5.2500    3.8971    0.0000 C   0  0  0  0  0  0  0  0  0  0  0  0
   -6.0000    5.1962    0.0000 O   0  0  0  0  0  0  0  0  0  0  0  0
   -7.5000    5.1962    0.0000 C   0  0  0  0  0  0  0  0  0  0  0  0
   -8.2500    6.4952    0.0000 C   0  0  0  0  0  0  0  0  0  0  0  0
   -9.7500    6.4952    0.0000 N   0  0  0  0  0  0  0  0  0  0  0  0
  -10.6317    5.2817    0.0000 C   0  0  0  0  0  0  0  0  0  0  0  0
  -12.0583    5.7452    0.0000 C   0  0  0  0  0  0  0  0  0  0  0  0
  -12.0583    7.2452    0.0000 C   0  0  0  0  0  0  0  0  0  0  0  0
  -10.6317    7.7087    0.0000 C   0  0  0  0  0  0  0  0  0  0  0  0
   -6.0000    2.5981    0.0000 C   0  0  0  0  0  0  0  0  0  0  0  0
   -5.2500    1.2990    0.0000 C   0  0  0  0  0  0  0  0  0  0  0  0
   -0.7500    1.2990    0.0000 N   0  0  0  0  0  0  0  0  0  0  0  0
    0.7500    1.2990    0.0000 C   0  0  0  0  0  0  0  0  0  0  0  0
    1.5000    2.5981    0.0000 N   0  0  0  0  0  0  0  0  0  0  0  0
    0.7500    3.8971    0.0000 C   0  0  0  0  0  0  0  0  0  0  0  0
   -0.7500    3.8971    0.0000 C   0  0  0  0  0  0  0  0  0  0  0  0
   -1.5000    5.1962    0.0000 C   0  0  0  0  0  0  0  0  0  0  0  0
   -0.7500    6.4952    0.0000 C   0  0  0  0  0  0  0  0  0  0  0  0
    0.7500    6.4952    0.0000 C   0  0  0  0  0  0  0  0  0  0  0  0
    1.5000    7.7942    0.0000 S   0  0  0  0  0  0  0  0  0  0  0  0
    0.2010    8.5442    0.0000 O   0  0  0  0  0  0  0  0  0  0  0  0
    2.7990    7.0442    0.0000 O   0  0  0  0  0  0  0  0  0  0  0  0
    2.2500    9.0933    0.0000 N   0  0  0  0  0  0  0  0  0  0  0  0
    1.5000   10.3923    0.0000 C   0  0  0  0  0  0  0  0  0  0  0  0
    2.7990   11.1423    0.0000 C   0  0  0  0  0  0  0  0  0  0  0  0
    0.2010    9.6423    0.0000 C   0  0  0  0  0  0  0  0  0  0  0  0
    0.7500   11.6913    0.0000 C   0  0  0  0  0  0  0  0  0  0  0  0
    1.5000    5.1962    0.0000 C   0  0  0  0  0  0  0  0  0  0  0  0
  1  2  1  0
  2  3  2  0
  3  4  1  0
  4  5  2  0
  5  6  1  0
  6  7  1  0
  7  8  2  0
  8  9  1  0
  9 10  2  0
 10 11  1  0
 11 12  1  0
 12 13  1  0
 13 14  1  0
 14 15  1  0
 15 16  1  0
 16 17  1  0
 17 18  1  0
 10 19  1  0
 19 20  2  0
  5 21  1  0
 21 22  2  0
 22 23  1  0
 23 24  1  0
 24 25  2  0
 25 26  1  0
 26 27  2  0
 27 28  1  0
 28 29  1  0
 29 30  2  0
 29 31  2  0
 29 32  1  0
 32 33  1  0
 33 34  1  0
 33 35  1  0
 33 36  1  0
 28 37  2  0
 22  2  1  0
 37 24  1  0
 20  7  1  0
 18 14  1  0
M  END
>  <Molecule ChEMBL ID>  (24) 
CHEMBL1287853

>  <Standard Type>  (24) 
Kd

>  <activity>  (24) 
9500

>  <Standard Units>  (24) 
nM

>  <activity_sd>  (24) 
NA

>  <p_activity>  (24) 
5.022

$$$$
CHEMBL379218
     RDKit          2D

 27 30  0  0  0  0  0  0  0  0999 V2000
   -2.6401   -3.1891    0.0000 C   0  0  0  0  0  0  0  0  0  0  0  0
   -1.2135   -2.7256    0.0000 C   0  0  0  0  0  0  0  0  0  0  0  0
   -0.0000   -3.6073    0.0000 N   0  0  0  0  0  0  0  0  0  0  0  0
    1.2135   -2.7256    0.0000 N   0  0  0  0  0  0  0  0  0  0  0  0
    0.7500   -1.2990    0.0000 C   0  0  0  0  0  0  0  0  0  0  0  0
    1.5000    0.0000    0.0000 C   0  0  0  0  0  0  0  0  0  0  0  0
    0.7500    1.2990    0.0000 C   0  0  0  0  0  0  0  0  0  0  0  0
   -0.7500    1.2990    0.0000 C   0  0  0  0  0  0  0  0  0  0  0  0
   -1.5000    2.5981    0.0000 C   0  0  0  0  0  0  0  0  0  0  0  0
   -0.7500    3.8971    0.0000 C   0  0  0  0  0  0  0  0  0  0  0  0
   -1.5000    5.1962    0.0000 N   0  0  0  0  0  0  0  0  0  0  0  0
   -3.0000    5.1962    0.0000 C   0  0  0  0  0  0  0  0  0  0  0  0
   -3.7500    3.8971    0.0000 C   0  0  0  0  0  0  0  0  0  0  0  0
   -5.2500    3.8971    0.0000 O   0  0  0  0  0  0  0  0  0  0  0  0
   -6.0000    5.1962    0.0000 C   0  0  0  0  0  0  0  0  0  0  0  0
   -7.5000    5.1962    0.0000 C   0  0  0  0  0  0  0  0  0  0  0  0
   -8.2500    3.8971    0.0000 N   0  0  0  0  0  0  0  0  0  0  0  0
   -8.2500    6.4952    0.0000 C   0  0  0  0  0  0  0  0  0  0  0  0
   -9.7500    6.4952    0.0000 C   0  0  0  0  0  0  0  0  0  0  0  0
  -10.5000    7.7942    0.0000 C   0  0  0  0  0  0  0  0  0  0  0  0
  -12.0000    7.7942    0.0000 C   0  0  0  0  0  0  0  0  0  0  0  0
  -12.7500    6.4952    0.0000 C   0  0  0  0  0  0  0  0  0  0  0  0
  -12.0000    5.1962    0.0000 C   0  0  0  0  0  0  0  0  0  0  0  0
  -10.5000    5.1962    0.0000 C   0  0  0  0  0  0  0  0  0  0  0  0
   -3.0000    2.5981    0.0000 C   0  0  0  0  0  0  0  0  0  0  0  0
   -1.5000    0.0000    0.0000 C   0  0  0  0  0  0  0  0  0  0  0  0
   -0.7500   -1.2990    0.0000 C   0  0  0  0  0  0  0  0  0  0  0  0
  1  2  1  0
  2  3  2  0
  3  4  1  0
  4  5  1  0
  5  6  2  0
  6  7  1  0
  7  8  2  0
  8  9  1  0
  9 10  2  0
 10 11  1  0
 11 12  2  0
 12 13  1  0
 13 14  1  0
 14 15  1  0
 15 16  1  0
 16 17  1  1
 16 18  1  0
 18 19  1  0
 19 20  2  0
 20 21  1  0
 21 22  2  0
 22 23  1  0
 23 24  2  0
 13 25  2  0
  8 26  1  0
 26 27  2  0
 27  2  1  0
 27  5  1  0
 25  9  1  0
 24 19  1  0
M  END
>  <Molecule ChEMBL ID>  (25) 
CHEMBL379218

>  <Standard Type>  (25) 
Kd

>  <activity>  (25) 
3.9

>  <Standard Units>  (25) 
nM

>  <activity_sd>  (25) 
NA

>  <p_activity>  (25) 
8.409

$$$$
CHEMBL5396725
     RDKit          2D

 27 30  0  0  0  0  0  0  0  0999 V2000
   -2.6401   -3.1891    0.0000 C   0  0  0  0  0  0  0  0  0  0  0  0
   -1.2135   -2.7256    0.0000 C   0  0  0  0  0  0  0  0  0  0  0  0
   -0.0000   -3.6073    0.0000 N   0  0  0  0  0  0  0  0  0  0  0  0
    1.2135   -2.7256    0.0000 N   0  0  0  0  0  0  0  0  0  0  0  0
    0.7500   -1.2990    0.0000 C   0  0  0  0  0  0  0  0  0  0  0  0
    1.5000    0.0000    0.0000 C   0  0  0  0  0  0  0  0  0  0  0  0
    0.7500    1.2990    0.0000 C   0  0  0  0  0  0  0  0  0  0  0  0
   -0.7500    1.2990    0.0000 C   0  0  0  0  0  0  0  0  0  0  0  0
   -1.5000    2.5981    0.0000 C   0  0  0  0  0  0  0  0  0  0  0  0
   -2.9918    2.7549    0.0000 N   0  0  0  0  0  0  0  0  0  0  0  0
   -3.3037    4.2221    0.0000 N   0  0  0  0  0  0  0  0  0  0  0  0
   -2.0046    4.9721    0.0000 C   0  0  0  0  0  0  0  0  0  0  0  0
   -1.8478    6.4639    0.0000 C   0  0  0  0  0  0  0  0  0  0  0  0
   -0.8899    3.9684    0.0000 N   0  0  0  0  0  0  0  0  0  0  0  0
    0.5773    4.2803    0.0000 C   0  0  0  0  0  0  0  0  0  0  0  0
    1.0409    5.7068    0.0000 C   0  0  0  0  0  0  0  0  0  0  0  0
    2.5081    6.0187    0.0000 C   0  0  0  0  0  0  0  0  0  0  0  0
    2.9716    7.4453    0.0000 C   0  0  0  0  0  0  0  0  0  0  0  0
    1.9679    8.5600    0.0000 C   0  0  0  0  0  0  0  0  0  0  0  0
    2.4314    9.9866    0.0000 C   0  0  0  0  0  0  0  0  0  0  0  0
    2.8950   11.4132    0.0000 F   0  0  0  0  0  0  0  0  0  0  0  0
    3.8580    9.5231    0.0000 F   0  0  0  0  0  0  0  0  0  0  0  0
    1.0048   10.4501    0.0000 F   0  0  0  0  0  0  0  0  0  0  0  0
    0.5007    8.2481    0.0000 C   0  0  0  0  0  0  0  0  0  0  0  0
    0.0372    6.8216    0.0000 C   0  0  0  0  0  0  0  0  0  0  0  0
   -1.5000    0.0000    0.0000 C   0  0  0  0  0  0  0  0  0  0  0  0
   -0.7500   -1.2990    0.0000 C   0  0  0  0  0  0  0  0  0  0  0  0
  1  2  1  0
  2  3  2  0
  3  4  1  0
  4  5  1  0
  5  6  2  0
  6  7  1  0
  7  8  2  0
  8  9  1  0
  9 10  2  0
 10 11  1  0
 11 12  2  0
 12 13  1  0
 12 14  1  0
 14 15  1  0
 15 16  1  0
 16 17  2  0
 17 18  1  0
 18 19  2  0
 19 20  1  0
 20 21  1  0
 20 22  1  0
 20 23  1  0
 19 24  1  0
 24 25  2  0
  8 26  1  0
 26 27  2  0
 27  2  1  0
 27  5  1  0
 14  9  1  0
 25 16  1  0
M  END
>  <Molecule ChEMBL ID>  (26) 
CHEMBL5396725

>  <Standard Type>  (26) 
Kd

>  <activity>  (26) 
2700

>  <Standard Units>  (26) 
nM

>  <activity_sd>  (26) 
NA

>  <p_activity>  (26) 
5.569

$$$$
CHEMBL5414359
     RDKit          2D

 24 27  0  0  0  0  0  0  0  0999 V2000
   -2.6401   -3.1891    0.0000 C   0  0  0  0  0  0  0  0  0  0  0  0
   -1.2135   -2.7256    0.0000 C   0  0  0  0  0  0  0  0  0  0  0  0
   -0.0000   -3.6073    0.0000 N   0  0  0  0  0  0  0  0  0  0  0  0
    1.2135   -2.7256    0.0000 N   0  0  0  0  0  0  0  0  0  0  0  0
    0.7500   -1.2990    0.0000 C   0  0  0  0  0  0  0  0  0  0  0  0
    1.5000    0.0000    0.0000 C   0  0  0  0  0  0  0  0  0  0  0  0
    0.7500    1.2990    0.0000 C   0  0  0  0  0  0  0  0  0  0  0  0
   -0.7500    1.2990    0.0000 C   0  0  0  0  0  0  0  0  0  0  0  0
   -1.5000    2.5981    0.0000 C   0  0  0  0  0  0  0  0  0  0  0  0
   -2.9918    2.7549    0.0000 N   0  0  0  0  0  0  0  0  0  0  0  0
   -3.3037    4.2221    0.0000 N   0  0  0  0  0  0  0  0  0  0  0  0
   -2.0046    4.9721    0.0000 C   0  0  0  0  0  0  0  0  0  0  0  0
   -1.8478    6.4639    0.0000 C   0  0  0  0  0  0  0  0  0  0  0  0
   -0.8899    3.9684    0.0000 N   0  0  0  0  0  0  0  0  0  0  0  0
    0.5773    4.2803    0.0000 C   0  0  0  0  0  0  0  0  0  0  0  0
    1.0409    5.7068    0.0000 C   0  0  0  0  0  0  0  0  0  0  0  0
    2.5081    6.0187    0.0000 C   0  0  0  0  0  0  0  0  0  0  0  0
    2.9716    7.4453    0.0000 C   0  0  0  0  0  0  0  0  0  0  0  0
    1.9679    8.5600    0.0000 C   0  0  0  0  0  0  0  0  0  0  0  0
    2.4314    9.9866    0.0000 Cl  0  0  0  0  0  0  0  0  0  0  0  0
    0.5007    8.2481    0.0000 C   0  0  0  0  0  0  0  0  0  0  0  0
    0.0372    6.8216    0.0000 C   0  0  0  0  0  0  0  0  0  0  0  0
   -1.5000    0.0000    0.0000 C   0  0  0  0  0  0  0  0  0  0  0  0
   -0.7500   -1.2990    0.0000 C   0  0  0  0  0  0  0  0  0  0  0  0
  1  2  1  0
  2  3  2  0
  3  4  1  0
  4  5  1  0
  5  6  2  0
  6  7  1  0
  7  8  2  0
  8  9  1  0
  9 10  2  0
 10 11  1  0
 11 12  2  0
 12 13  1  0
 12 14  1  0
 14 15  1  0
 15 16  1  0
 16 17  2  0
 17 18  1  0
 18 19  2  0
 19 20  1  0
 19 21  1  0
 21 22  2  0
  8 23  1  0
 23 24  2  0
 24  2  1  0
 24  5  1  0
 14  9  1  0
 22 16  1  0
M  END
>  <Molecule ChEMBL ID>  (27) 
CHEMBL5414359

>  <Standard Type>  (27) 
Kd

>  <activity>  (27) 
1400

>  <Standard Units>  (27) 
nM

>  <activity_sd>  (27) 
NA

>  <p_activity>  (27) 
5.854

$$$$
CHEMBL5434183
     RDKit          2D

 25 29  0  0  0  0  0  0  0  0999 V2000
   -2.6401   -3.1891    0.0000 C   0  0  0  0  0  0  0  0  0  0  0  0
   -1.2135   -2.7256    0.0000 C   0  0  0  0  0  0  0  0  0  0  0  0
   -0.0000   -3.6073    0.0000 N   0  0  0  0  0  0  0  0  0  0  0  0
    1.2135   -2.7256    0.0000 N   0  0  0  0  0  0  0  0  0  0  0  0
    0.7500   -1.2990    0.0000 C   0  0  0  0  0  0  0  0  0  0  0  0
    1.5000    0.0000    0.0000 C   0  0  0  0  0  0  0  0  0  0  0  0
    0.7500    1.2990    0.0000 C   0  0  0  0  0  0  0  0  0  0  0  0
   -0.7500    1.2990    0.0000 C   0  0  0  0  0  0  0  0  0  0  0  0
   -1.5000    2.5981    0.0000 C   0  0  0  0  0  0  0  0  0  0  0  0
   -2.9918    2.7549    0.0000 N   0  0  0  0  0  0  0  0  0  0  0  0
   -3.3037    4.2221    0.0000 N   0  0  0  0  0  0  0  0  0  0  0  0
   -2.0046    4.9721    0.0000 C   0  0  0  0  0  0  0  0  0  0  0  0
   -0.8899    3.9684    0.0000 N   0  0  0  0  0  0  0  0  0  0  0  0
    0.4091    4.7184    0.0000 C   0  0  0  0  0  0  0  0  0  0  0  0
    1.7795    4.1083    0.0000 C   0  0  0  0  0  0  0  0  0  0  0  0
    1.9363    2.6165    0.0000 C   0  0  0  0  0  0  0  0  0  0  0  0
    3.3066    2.0064    0.0000 C   0  0  0  0  0  0  0  0  0  0  0  0
    4.5201    2.8881    0.0000 C   0  0  0  0  0  0  0  0  0  0  0  0
    5.8904    2.2780    0.0000 Cl  0  0  0  0  0  0  0  0  0  0  0  0
    4.3633    4.3799    0.0000 C   0  0  0  0  0  0  0  0  0  0  0  0
    2.9930    4.9900    0.0000 C   0  0  0  0  0  0  0  0  0  0  0  0
    0.0973    6.1856    0.0000 C   0  0  0  0  0  0  0  0  0  0  0  0
   -1.3945    6.3424    0.0000 C   0  0  0  0  0  0  0  0  0  0  0  0
   -1.5000    0.0000    0.0000 C   0  0  0  0  0  0  0  0  0  0  0  0
   -0.7500   -1.2990    0.0000 C   0  0  0  0  0  0  0  0  0  0  0  0
  1  2  1  0
  2  3  2  0
  3  4  1  0
  4  5  1  0
  5  6  2  0
  6  7  1  0
  7  8  2  0
  8  9  1  0
  9 10  2  0
 10 11  1  0
 11 12  2  0
 12 13  1  0
 13 14  1  0
 14 15  1  1
 15 16  2  0
 16 17  1  0
 17 18  2  0
 18 19  1  0
 18 20  1  0
 20 21  2  0
 14 22  1  0
 22 23  1  0
  8 24  1  0
 24 25  2  0
 25  2  1  0
 25  5  1  0
 13  9  1  0
 21 15  1  0
 23 12  1  0
M  END
>  <Molecule ChEMBL ID>  (28) 
CHEMBL5434183

>  <Standard Type>  (28) 
Kd

>  <activity>  (28) 
330

>  <Standard Units>  (28) 
nM

>  <activity_sd>  (28) 
NA

>  <p_activity>  (28) 
6.481

$$$$
CHEMBL5416758
     RDKit          2D

 25 29  0  0  0  0  0  0  0  0999 V2000
   -2.6401   -3.1891    0.0000 C   0  0  0  0  0  0  0  0  0  0  0  0
   -1.2135   -2.7256    0.0000 C   0  0  0  0  0  0  0  0  0  0  0  0
   -0.0000   -3.6073    0.0000 N   0  0  0  0  0  0  0  0  0  0  0  0
    1.2135   -2.7256    0.0000 N   0  0  0  0  0  0  0  0  0  0  0  0
    0.7500   -1.2990    0.0000 C   0  0  0  0  0  0  0  0  0  0  0  0
    1.5000    0.0000    0.0000 C   0  0  0  0  0  0  0  0  0  0  0  0
    0.7500    1.2990    0.0000 C   0  0  0  0  0  0  0  0  0  0  0  0
   -0.7500    1.2990    0.0000 C   0  0  0  0  0  0  0  0  0  0  0  0
   -1.5000    2.5981    0.0000 C   0  0  0  0  0  0  0  0  0  0  0  0
   -2.9918    2.7549    0.0000 N   0  0  0  0  0  0  0  0  0  0  0  0
   -3.3037    4.2221    0.0000 N   0  0  0  0  0  0  0  0  0  0  0  0
   -2.0046    4.9721    0.0000 C   0  0  0  0  0  0  0  0  0  0  0  0
   -0.8899    3.9684    0.0000 N   0  0  0  0  0  0  0  0  0  0  0  0
    0.4091    4.7184    0.0000 C   0  0  0  0  0  0  0  0  0  0  0  0
    1.7795    4.1083    0.0000 C   0  0  0  0  0  0  0  0  0  0  0  0
    1.9363    2.6165    0.0000 C   0  0  0  0  0  0  0  0  0  0  0  0
    3.3066    2.0064    0.0000 C   0  0  0  0  0  0  0  0  0  0  0  0
    4.5201    2.8881    0.0000 C   0  0  0  0  0  0  0  0  0  0  0  0
    5.8904    2.2780    0.0000 Cl  0  0  0  0  0  0  0  0  0  0  0  0
    4.3633    4.3799    0.0000 C   0  0  0  0  0  0  0  0  0  0  0  0
    2.9930    4.9900    0.0000 C   0  0  0  0  0  0  0  0  0  0  0  0
    0.0973    6.1856    0.0000 C   0  0  0  0  0  0  0  0  0  0  0  0
   -1.3945    6.3424    0.0000 C   0  0  0  0  0  0  0  0  0  0  0  0
   -1.5000    0.0000    0.0000 N   0  0  0  0  0  0  0  0  0  0  0  0
   -0.7500   -1.2990    0.0000 C   0  0  0  0  0  0  0  0  0  0  0  0
  1  2  1  0
  2  3  2  0
  3  4  1  0
  4  5  1  0
  5  6  2  0
  6  7  1  0
  7  8  2  0
  8  9  1  0
  9 10  2  0
 10 11  1  0
 11 12  2  0
 12 13  1  0
 13 14  1  0
 14 15  1  1
 15 16  2  0
 16 17  1  0
 17 18  2  0
 18 19  1  0
 18 20  1  0
 20 21  2  0
 14 22  1  0
 22 23  1  0
  8 24  1  0
 24 25  2  0
 25  2  1  0
 25  5  1  0
 13  9  1  0
 21 15  1  0
 23 12  1  0
M  END
>  <Molecule ChEMBL ID>  (29) 
CHEMBL5416758

>  <Standard Type>  (29) 
Kd

>  <activity>  (29) 
1300

>  <Standard Units>  (29) 
nM

>  <activity_sd>  (29) 
NA

>  <p_activity>  (29) 
5.886

$$$$
CHEMBL5425043
     RDKit          2D

 25 29  0  0  0  0  0  0  0  0999 V2000
   -2.6401   -3.1891    0.0000 C   0  0  0  0  0  0  0  0  0  0  0  0
   -1.2135   -2.7256    0.0000 C   0  0  0  0  0  0  0  0  0  0  0  0
   -0.0000   -3.6073    0.0000 N   0  0  0  0  0  0  0  0  0  0  0  0
    1.2135   -2.7256    0.0000 N   0  0  0  0  0  0  0  0  0  0  0  0
    0.7500   -1.2990    0.0000 C   0  0  0  0  0  0  0  0  0  0  0  0
    1.5000    0.0000    0.0000 N   0  0  0  0  0  0  0  0  0  0  0  0
    0.7500    1.2990    0.0000 C   0  0  0  0  0  0  0  0  0  0  0  0
   -0.7500    1.2990    0.0000 C   0  0  0  0  0  0  0  0  0  0  0  0
   -1.5000    2.5981    0.0000 C   0  0  0  0  0  0  0  0  0  0  0  0
   -2.9918    2.7549    0.0000 N   0  0  0  0  0  0  0  0  0  0  0  0
   -3.3037    4.2221    0.0000 N   0  0  0  0  0  0  0  0  0  0  0  0
   -2.0046    4.9721    0.0000 C   0  0  0  0  0  0  0  0  0  0  0  0
   -0.8899    3.9684    0.0000 N   0  0  0  0  0  0  0  0  0  0  0  0
    0.4091    4.7184    0.0000 C   0  0  0  0  0  0  0  0  0  0  0  0
    1.7795    4.1083    0.0000 C   0  0  0  0  0  0  0  0  0  0  0  0
    1.9363    2.6165    0.0000 C   0  0  0  0  0  0  0  0  0  0  0  0
    3.3066    2.0064    0.0000 C   0  0  0  0  0  0  0  0  0  0  0  0
    4.5201    2.8881    0.0000 C   0  0  0  0  0  0  0  0  0  0  0  0
    5.8904    2.2780    0.0000 Cl  0  0  0  0  0  0  0  0  0  0  0  0
    4.3633    4.3799    0.0000 C   0  0  0  0  0  0  0  0  0  0  0  0
    2.9930    4.9900    0.0000 C   0  0  0  0  0  0  0  0  0  0  0  0
    0.0973    6.1856    0.0000 C   0  0  0  0  0  0  0  0  0  0  0  0
   -1.3945    6.3424    0.0000 C   0  0  0  0  0  0  0  0  0  0  0  0
   -1.5000    0.0000    0.0000 C   0  0  0  0  0  0  0  0  0  0  0  0
   -0.7500   -1.2990    0.0000 C   0  0  0  0  0  0  0  0  0  0  0  0
  1  2  1  0
  2  3  2  0
  3  4  1  0
  4  5  1  0
  5  6  2  0
  6  7  1  0
  7  8  2  0
  8  9  1  0
  9 10  2  0
 10 11  1  0
 11 12  2  0
 12 13  1  0
 13 14  1  0
 14 15  1  1
 15 16  2  0
 16 17  1  0
 17 18  2  0
 18 19  1  0
 18 20  1  0
 20 21  2  0
 14 22  1  0
 22 23  1  0
  8 24  1  0
 24 25  2  0
 25  2  1  0
 25  5  1  0
 13  9  1  0
 21 15  1  0
 23 12  1  0
M  END
>  <Molecule ChEMBL ID>  (30) 
CHEMBL5425043

>  <Standard Type>  (30) 
Kd

>  <activity>  (30) 
2100

>  <Standard Units>  (30) 
nM

>  <activity_sd>  (30) 
NA

>  <p_activity>  (30) 
5.678

$$$$
CHEMBL1474834
     RDKit          2D

 28 32  0  0  0  0  0  0  0  0999 V2000
    4.6740   -7.4303    0.0000 C   0  0  0  0  0  0  0  0  0  0  0  0
    3.3037   -6.8202    0.0000 C   0  0  0  0  0  0  0  0  0  0  0  0
    2.9918   -5.3529    0.0000 N   0  0  0  0  0  0  0  0  0  0  0  0
    1.5000   -5.1962    0.0000 C   0  0  0  0  0  0  0  0  0  0  0  0
    0.7500   -3.8971    0.0000 C   0  0  0  0  0  0  0  0  0  0  0  0
    1.5000   -2.5981    0.0000 N   0  0  0  0  0  0  0  0  0  0  0  0
    3.0000   -2.5981    0.0000 C   0  0  0  0  0  0  0  0  0  0  0  0
    0.7500   -1.2990    0.0000 C   0  0  0  0  0  0  0  0  0  0  0  0
    1.5000    0.0000    0.0000 N   0  0  0  0  0  0  0  0  0  0  0  0
    0.7500    1.2990    0.0000 C   0  0  0  0  0  0  0  0  0  0  0  0
   -0.7500    1.2990    0.0000 N   0  0  0  0  0  0  0  0  0  0  0  0
   -1.5000    0.0000    0.0000 C   0  0  0  0  0  0  0  0  0  0  0  0
   -3.0000    0.0000    0.0000 C   0  0  0  0  0  0  0  0  0  0  0  0
   -3.7500   -1.2990    0.0000 C   0  0  0  0  0  0  0  0  0  0  0  0
   -3.0000   -2.5981    0.0000 C   0  0  0  0  0  0  0  0  0  0  0  0
   -3.7500   -3.8971    0.0000 C   0  0  0  0  0  0  0  0  0  0  0  0
   -3.0000   -5.1962    0.0000 C   0  0  0  0  0  0  0  0  0  0  0  0
   -3.7500   -6.4952    0.0000 C   0  0  0  0  0  0  0  0  0  0  0  0
   -5.2500   -6.4952    0.0000 C   0  0  0  0  0  0  0  0  0  0  0  0
   -6.0000   -5.1962    0.0000 C   0  0  0  0  0  0  0  0  0  0  0  0
   -5.2500   -3.8971    0.0000 C   0  0  0  0  0  0  0  0  0  0  0  0
   -7.4672   -5.5080    0.0000 O   0  0  0  0  0  0  0  0  0  0  0  0
   -7.6240   -6.9998    0.0000 C   0  0  0  0  0  0  0  0  0  0  0  0
   -6.2537   -7.6099    0.0000 O   0  0  0  0  0  0  0  0  0  0  0  0
   -1.5000   -2.5981    0.0000 C   0  0  0  0  0  0  0  0  0  0  0  0
   -0.7500   -1.2990    0.0000 C   0  0  0  0  0  0  0  0  0  0  0  0
    0.8899   -6.5665    0.0000 C   0  0  0  0  0  0  0  0  0  0  0  0
    2.0046   -7.5702    0.0000 S   0  0  0  0  0  0  0  0  0  0  0  0
  1  2  1  0
  2  3  2  0
  3  4  1  0
  4  5  1  0
  5  6  1  0
  6  7  1  0
  6  8  1  0
  8  9  2  0
  9 10  1  0
 10 11  2  0
 11 12  1  0
 12 13  2  0
 13 14  1  0
 14 15  2  0
 15 16  1  0
 16 17  2  0
 17 18  1  0
 18 19  2  0
 19 20  1  0
 20 21  2  0
 20 22  1  0
 22 23  1  0
 23 24  1  0
 15 25  1  0
 25 26  2  0
  4 27  2  0
 27 28  1  0
 28  2  1  0
 26  8  1  0
 26 12  1  0
 21 16  1  0
 24 19  1  0
M  END
>  <Molecule ChEMBL ID>  (31) 
CHEMBL1474834

>  <Standard Type>  (31) 
Kd

>  <activity>  (31) 
300

>  <Standard Units>  (31) 
nM

>  <activity_sd>  (31) 
NA

>  <p_activity>  (31) 
6.523

$$$$
CHEMBL5093650
     RDKit          2D

 27 30  0  0  0  0  0  0  0  0999 V2000
   -4.9294   -1.5000    0.0000 C   0  0  0  0  0  0  0  0  0  0  0  0
   -3.6304   -0.7500    0.0000 C   0  0  0  0  0  0  0  0  0  0  0  0
   -3.6304    0.7500    0.0000 N   0  0  0  0  0  0  0  0  0  0  0  0
   -2.3313    1.5000    0.0000 C   0  0  0  0  0  0  0  0  0  0  0  0
   -2.3313    3.0000    0.0000 N   0  0  0  0  0  0  0  0  0  0  0  0
   -3.6304    3.7500    0.0000 C   0  0  0  0  0  0  0  0  0  0  0  0
   -3.6304    5.2500    0.0000 C   0  0  0  0  0  0  0  0  0  0  0  0
   -2.3313    6.0000    0.0000 C   0  0  0  0  0  0  0  0  0  0  0  0
   -1.0323    5.2500    0.0000 F   0  0  0  0  0  0  0  0  0  0  0  0
   -2.3313    7.5000    0.0000 C   0  0  0  0  0  0  0  0  0  0  0  0
   -3.6304    8.2500    0.0000 C   0  0  0  0  0  0  0  0  0  0  0  0
   -4.9294    7.5000    0.0000 C   0  0  0  0  0  0  0  0  0  0  0  0
   -4.9294    6.0000    0.0000 C   0  0  0  0  0  0  0  0  0  0  0  0
   -6.2284    5.2500    0.0000 F   0  0  0  0  0  0  0  0  0  0  0  0
   -1.0323    0.7500    0.0000 C   0  0  0  0  0  0  0  0  0  0  0  0
    0.3943    1.2135    0.0000 C   0  0  0  0  0  0  0  0  0  0  0  0
    0.8578    2.6401    0.0000 C   0  0  0  0  0  0  0  0  0  0  0  0
    2.3250    2.9520    0.0000 C   0  0  0  0  0  0  0  0  0  0  0  0
    2.7886    4.3786    0.0000 C   0  0  0  0  0  0  0  0  0  0  0  0
    1.7849    5.4933    0.0000 N   0  0  0  0  0  0  0  0  0  0  0  0
    0.3177    5.1814    0.0000 C   0  0  0  0  0  0  0  0  0  0  0  0
   -0.6860    6.2961    0.0000 N   0  0  0  0  0  0  0  0  0  0  0  0
   -0.1459    3.7548    0.0000 C   0  0  0  0  0  0  0  0  0  0  0  0
    1.2760    0.0000    0.0000 C   0  0  0  0  0  0  0  0  0  0  0  0
    0.3943   -1.2135    0.0000 N   0  0  0  0  0  0  0  0  0  0  0  0
   -1.0323   -0.7500    0.0000 C   0  0  0  0  0  0  0  0  0  0  0  0
   -2.3313   -1.5000    0.0000 N   0  0  0  0  0  0  0  0  0  0  0  0
  1  2  1  0
  2  3  2  0
  3  4  1  0
  4  5  1  0
  5  6  1  0
  6  7  1  0
  7  8  2  0
  8  9  1  0
  8 10  1  0
 10 11  2  0
 11 12  1  0
 12 13  2  0
 13 14  1  0
  4 15  2  0
 15 16  1  0
 16 17  1  0
 17 18  2  0
 18 19  1  0
 19 20  2  0
 20 21  1  0
 21 22  1  0
 21 23  2  0
 16 24  2  0
 24 25  1  0
 25 26  1  0
 26 27  2  0
 27  2  1  0
 13  7  1  0
 26 15  1  0
 23 17  1  0
M  END
>  <Molecule ChEMBL ID>  (32) 
CHEMBL5093650

>  <Standard Type>  (32) 
Kd

>  <activity>  (32) 
0.05

>  <Standard Units>  (32) 
nM

>  <activity_sd>  (32) 
NA

>  <p_activity>  (32) 
10.301

$$$$
CHEMBL1236107
     RDKit          2D

 26 30  0  0  0  0  0  0  0  0999 V2000
   -2.0444  -13.4534    0.0000 C   0  0  0  0  0  0  0  0  0  0  0  0
   -3.1591  -12.4497    0.0000 N   0  0  0  0  0  0  0  0  0  0  0  0
   -3.0023  -10.9579    0.0000 C   0  0  0  0  0  0  0  0  0  0  0  0
   -4.3727  -10.3478    0.0000 C   0  0  0  0  0  0  0  0  0  0  0  0
   -4.6845   -8.8806    0.0000 C   0  0  0  0  0  0  0  0  0  0  0  0
   -6.1111   -8.4171    0.0000 C   0  0  0  0  0  0  0  0  0  0  0  0
   -6.4230   -6.9498    0.0000 C   0  0  0  0  0  0  0  0  0  0  0  0
   -5.3083   -5.9462    0.0000 C   0  0  0  0  0  0  0  0  0  0  0  0
   -5.3083   -4.4462    0.0000 N   0  0  0  0  0  0  0  0  0  0  0  0
   -3.8817   -3.9826    0.0000 N   0  0  0  0  0  0  0  0  0  0  0  0
   -3.0000   -5.1962    0.0000 C   0  0  0  0  0  0  0  0  0  0  0  0
   -1.5000   -5.1962    0.0000 S   0  0  0  0  0  0  0  0  0  0  0  0
   -0.7500   -3.8971    0.0000 C   0  0  0  0  0  0  0  0  0  0  0  0
    0.7500   -3.8971    0.0000 C   0  0  0  0  0  0  0  0  0  0  0  0
    1.5000   -2.5981    0.0000 C   0  0  0  0  0  0  0  0  0  0  0  0
    0.7500   -1.2990    0.0000 C   0  0  0  0  0  0  0  0  0  0  0  0
    1.5000    0.0000    0.0000 N   0  0  0  0  0  0  0  0  0  0  0  0
    0.7500    1.2990    0.0000 C   0  0  0  0  0  0  0  0  0  0  0  0
   -0.7500    1.2990    0.0000 C   0  0  0  0  0  0  0  0  0  0  0  0
   -1.5000    0.0000    0.0000 C   0  0  0  0  0  0  0  0  0  0  0  0
   -0.7500   -1.2990    0.0000 C   0  0  0  0  0  0  0  0  0  0  0  0
   -1.5000   -2.5981    0.0000 C   0  0  0  0  0  0  0  0  0  0  0  0
   -3.8817   -6.4097    0.0000 N   0  0  0  0  0  0  0  0  0  0  0  0
   -3.5698   -7.8769    0.0000 N   0  0  0  0  0  0  0  0  0  0  0  0
   -5.3764  -11.4625    0.0000 C   0  0  0  0  0  0  0  0  0  0  0  0
   -4.6264  -12.7616    0.0000 N   0  0  0  0  0  0  0  0  0  0  0  0
  1  2  1  0
  2  3  1  0
  3  4  2  0
  4  5  1  0
  5  6  1  0
  6  7  2  0
  7  8  1  0
  8  9  2  0
  9 10  1  0
 10 11  2  0
 11 12  1  0
 12 13  1  0
 13 14  2  0
 14 15  1  0
 15 16  2  0
 16 17  1  0
 17 18  2  0
 18 19  1  0
 19 20  2  0
 20 21  1  0
 21 22  2  0
 11 23  1  0
 23 24  1  0
  4 25  1  0
 25 26  2  0
 26  2  1  0
 24  5  2  0
 23  8  1  0
 22 13  1  0
 21 16  1  0
M  END
>  <Molecule ChEMBL ID>  (33) 
CHEMBL1236107

>  <Standard Type>  (33) 
Kd

>  <activity>  (33) 
1800

>  <Standard Units>  (33) 
nM

>  <activity_sd>  (33) 
NA

>  <p_activity>  (33) 
5.745

$$$$
CHEMBL1082152
     RDKit          2D

 30 33  0  0  0  0  0  0  0  0999 V2000
   -1.6317   -0.0855    0.0000 C   0  0  0  0  0  0  0  0  0  0  0  0
   -0.7500   -1.2990    0.0000 N   0  0  0  0  0  0  0  0  0  0  0  0
    0.7500   -1.2990    0.0000 C   0  0  0  0  0  0  0  0  0  0  0  0
    1.2135   -2.7256    0.0000 C   0  0  0  0  0  0  0  0  0  0  0  0
    2.6401   -3.1891    0.0000 C   0  0  0  0  0  0  0  0  0  0  0  0
    3.8536   -2.3075    0.0000 C   0  0  0  0  0  0  0  0  0  0  0  0
    3.8536   -0.8075    0.0000 C   0  0  0  0  0  0  0  0  0  0  0  0
    5.1527   -0.0575    0.0000 C   0  0  0  0  0  0  0  0  0  0  0  0
    5.1527    1.4425    0.0000 C   0  0  0  0  0  0  0  0  0  0  0  0
    3.8536    2.1925    0.0000 C   0  0  0  0  0  0  0  0  0  0  0  0
    2.5546    1.4425    0.0000 C   0  0  0  0  0  0  0  0  0  0  0  0
    1.2556    2.1925    0.0000 N   0  0  0  0  0  0  0  0  0  0  0  0
    1.2556    3.6925    0.0000 C   0  0  0  0  0  0  0  0  0  0  0  0
   -0.0435    4.4425    0.0000 C   0  0  0  0  0  0  0  0  0  0  0  0
   -1.3425    3.6925    0.0000 O   0  0  0  0  0  0  0  0  0  0  0  0
   -0.0435    5.9425    0.0000 C   0  0  0  0  0  0  0  0  0  0  0  0
   -1.3425    6.6925    0.0000 O   0  0  0  0  0  0  0  0  0  0  0  0
    2.5546   -0.0575    0.0000 C   0  0  0  0  0  0  0  0  0  0  0  0
    5.0672   -3.1891    0.0000 C   0  0  0  0  0  0  0  0  0  0  0  0
    6.4937   -2.7256    0.0000 O   0  0  0  0  0  0  0  0  0  0  0  0
    4.6036   -4.6157    0.0000 N   0  0  0  0  0  0  0  0  0  0  0  0
    3.1036   -4.6157    0.0000 C   0  0  0  0  0  0  0  0  0  0  0  0
    2.2220   -5.8293    0.0000 O   0  0  0  0  0  0  0  0  0  0  0  0
   -0.0000   -3.6073    0.0000 C   0  0  0  0  0  0  0  0  0  0  0  0
   -0.1568   -5.0991    0.0000 C   0  0  0  0  0  0  0  0  0  0  0  0
   -1.5271   -5.7092    0.0000 C   0  0  0  0  0  0  0  0  0  0  0  0
   -1.6839   -7.2010    0.0000 F   0  0  0  0  0  0  0  0  0  0  0  0
   -2.7406   -4.8275    0.0000 C   0  0  0  0  0  0  0  0  0  0  0  0
   -2.5838   -3.3357    0.0000 C   0  0  0  0  0  0  0  0  0  0  0  0
   -1.2135   -2.7256    0.0000 C   0  0  0  0  0  0  0  0  0  0  0  0
  1  2  1  0
  2  3  1  0
  3  4  2  0
  4  5  1  0
  5  6  2  0
  6  7  1  0
  7  8  2  0
  8  9  1  0
  9 10  2  0
 10 11  1  0
 11 12  1  0
 12 13  1  0
 13 14  1  0
 14 15  1  0
 14 16  1  0
 16 17  1  0
 11 18  2  0
  6 19  1  0
 19 20  2  0
 19 21  1  0
 21 22  1  0
 22 23  2  0
  4 24  1  0
 24 25  2  0
 25 26  1  0
 26 27  1  0
 26 28  2  0
 28 29  1  0
 29 30  2  0
 30  2  1  0
 22  5  1  0
 30 24  1  0
 18  7  1  0
M  END
>  <Molecule ChEMBL ID>  (34) 
CHEMBL1082152

>  <Standard Type>  (34) 
Kd

>  <activity>  (34) 
87

>  <Standard Units>  (34) 
nM

>  <activity_sd>  (34) 
NA

>  <p_activity>  (34) 
7.06

$$$$
CHEMBL300138
     RDKit          2D

 39 45  0  0  0  0  0  0  0  0999 V2000
   -2.6401   -3.1891    0.0000 C   0  0  0  0  0  0  0  0  0  0  0  0
   -1.2135   -2.7256    0.0000 N   0  0  0  0  0  0  0  0  0  0  0  0
   -0.0000   -3.6073    0.0000 C   0  0  0  0  0  0  0  0  0  0  0  0
    1.2135   -2.7256    0.0000 C   0  0  0  0  0  0  0  0  0  0  0  0
    2.6401   -3.1891    0.0000 C   0  0  0  0  0  0  0  0  0  0  0  0
    3.8536   -2.3075    0.0000 C   0  0  0  0  0  0  0  0  0  0  0  0
    3.8536   -0.8075    0.0000 C   0  0  0  0  0  0  0  0  0  0  0  0
    2.6401    0.0742    0.0000 C   0  0  0  0  0  0  0  0  0  0  0  0
    3.1036    1.5008    0.0000 N   0  0  0  0  0  0  0  0  0  0  0  0
    2.2220    2.7143    0.0000 C   0  0  0  0  0  0  0  0  0  0  0  0
    2.8321    4.0846    0.0000 C   0  0  0  0  0  0  0  0  0  0  0  0
    1.9504    5.2982    0.0000 C   0  0  0  0  0  0  0  0  0  0  0  0
    0.4586    5.1414    0.0000 N   0  0  0  0  0  0  0  0  0  0  0  0
   -0.4231    6.3549    0.0000 C   0  0  0  0  0  0  0  0  0  0  0  0
    0.1870    7.7252    0.0000 C   0  0  0  0  0  0  0  0  0  0  0  0
    1.6788    7.8820    0.0000 C   0  0  0  0  0  0  0  0  0  0  0  0
    2.2889    9.2523    0.0000 C   0  0  0  0  0  0  0  0  0  0  0  0
    1.4072   10.4658    0.0000 C   0  0  0  0  0  0  0  0  0  0  0  0
   -0.0845   10.3091    0.0000 C   0  0  0  0  0  0  0  0  0  0  0  0
   -0.6946    8.9387    0.0000 N   0  0  0  0  0  0  0  0  0  0  0  0
   -0.1515    3.7711    0.0000 C   0  0  0  0  0  0  0  0  0  0  0  0
    0.7302    2.5575    0.0000 C   0  0  0  0  0  0  0  0  0  0  0  0
    4.6036    1.5008    0.0000 C   0  0  0  0  0  0  0  0  0  0  0  0
    5.6073    2.6155    0.0000 C   0  0  0  0  0  0  0  0  0  0  0  0
    7.0746    2.3036    0.0000 C   0  0  0  0  0  0  0  0  0  0  0  0
    7.5381    0.8771    0.0000 C   0  0  0  0  0  0  0  0  0  0  0  0
    6.5344   -0.2377    0.0000 C   0  0  0  0  0  0  0  0  0  0  0  0
    5.0672    0.0742    0.0000 C   0  0  0  0  0  0  0  0  0  0  0  0
    5.0672   -3.1891    0.0000 C   0  0  0  0  0  0  0  0  0  0  0  0
    6.4937   -2.7256    0.0000 O   0  0  0  0  0  0  0  0  0  0  0  0
    4.6036   -4.6157    0.0000 N   0  0  0  0  0  0  0  0  0  0  0  0
    3.1036   -4.6157    0.0000 C   0  0  0  0  0  0  0  0  0  0  0  0
    2.2220   -5.8293    0.0000 O   0  0  0  0  0  0  0  0  0  0  0  0
    0.7500   -1.2990    0.0000 C   0  0  0  0  0  0  0  0  0  0  0  0
    1.5000    0.0000    0.0000 C   0  0  0  0  0  0  0  0  0  0  0  0
    0.7500    1.2990    0.0000 C   0  0  0  0  0  0  0  0  0  0  0  0
   -0.7500    1.2990    0.0000 C   0  0  0  0  0  0  0  0  0  0  0  0
   -1.5000    0.0000    0.0000 C   0  0  0  0  0  0  0  0  0  0  0  0
   -0.7500   -1.2990    0.0000 C   0  0  0  0  0  0  0  0  0  0  0  0
  1  2  1  0
  2  3  1  0
  3  4  2  0
  4  5  1  0
  5  6  2  0
  6  7  1  0
  7  8  2  0
  8  9  1  0
  9 10  1  0
 10 11  1  0
 11 12  1  0
 12 13  1  0
 13 14  1  0
 14 15  1  0
 15 16  2  0
 16 17  1  0
 17 18  2  0
 18 19  1  0
 19 20  2  0
 13 21  1  0
 21 22  1  0
  9 23  1  0
 23 24  2  0
 24 25  1  0
 25 26  2  0
 26 27  1  0
 27 28  2  0
  6 29  1  0
 29 30  2  0
 29 31  1  0
 31 32  1  0
 32 33  2  0
  4 34  1  0
 34 35  2  0
 35 36  1  0
 36 37  2  0
 37 38  1  0
 38 39  2  0
 39  2  1  0
 32  5  1  0
 39 34  1  0
 28  7  1  0
 22 10  1  0
 28 23  1  0
 20 15  1  0
M  END
>  <Molecule ChEMBL ID>  (35) 
CHEMBL300138

>  <Standard Type>  (35) 
Kd

>  <activity>  (35) 
1000

>  <Standard Units>  (35) 
nM

>  <activity_sd>  (35) 
NA

>  <p_activity>  (35) 
6

$$$$
CHEMBL230011
     RDKit          2D

 26 29  0  0  0  0  0  0  0  0999 V2000
    3.0000    0.0000    0.0000 N   0  0  0  0  0  0  0  0  0  0  0  0
    1.5000    0.0000    0.0000 C   0  0  0  0  0  0  0  0  0  0  0  0
    0.7500   -1.2990    0.0000 N   0  0  0  0  0  0  0  0  0  0  0  0
   -0.7500   -1.2990    0.0000 C   0  0  0  0  0  0  0  0  0  0  0  0
   -1.5000   -2.5981    0.0000 N   0  0  0  0  0  0  0  0  0  0  0  0
   -1.5000    0.0000    0.0000 C   0  0  0  0  0  0  0  0  0  0  0  0
   -3.0000    0.0000    0.0000 N   0  0  0  0  0  0  0  0  0  0  0  0
   -3.7500    1.2990    0.0000 C   0  0  0  0  0  0  0  0  0  0  0  0
   -5.2500    1.2990    0.0000 C   0  0  0  0  0  0  0  0  0  0  0  0
   -6.0000    2.5981    0.0000 C   0  0  0  0  0  0  0  0  0  0  0  0
   -7.5000    2.5981    0.0000 C   0  0  0  0  0  0  0  0  0  0  0  0
   -8.2500    1.2990    0.0000 C   0  0  0  0  0  0  0  0  0  0  0  0
   -7.5000    0.0000    0.0000 C   0  0  0  0  0  0  0  0  0  0  0  0
   -8.2500   -1.2990    0.0000 O   0  0  0  0  0  0  0  0  0  0  0  0
   -6.0000    0.0000    0.0000 C   0  0  0  0  0  0  0  0  0  0  0  0
   -3.0000    2.5981    0.0000 C   0  0  0  0  0  0  0  0  0  0  0  0
   -3.7500    3.8971    0.0000 C   0  0  0  0  0  0  0  0  0  0  0  0
   -3.0000    5.1962    0.0000 C   0  0  0  0  0  0  0  0  0  0  0  0
   -3.7500    6.4952    0.0000 C   0  0  0  0  0  0  0  0  0  0  0  0
   -5.2500    6.4952    0.0000 C   0  0  0  0  0  0  0  0  0  0  0  0
   -6.0000    5.1962    0.0000 C   0  0  0  0  0  0  0  0  0  0  0  0
   -7.5000    5.1962    0.0000 O   0  0  0  0  0  0  0  0  0  0  0  0
   -5.2500    3.8971    0.0000 C   0  0  0  0  0  0  0  0  0  0  0  0
   -1.5000    2.5981    0.0000 N   0  0  0  0  0  0  0  0  0  0  0  0
   -0.7500    1.2990    0.0000 C   0  0  0  0  0  0  0  0  0  0  0  0
    0.7500    1.2990    0.0000 N   0  0  0  0  0  0  0  0  0  0  0  0
  1  2  1  0
  2  3  2  0
  3  4  1  0
  4  5  1  0
  4  6  2  0
  6  7  1  0
  7  8  2  0
  8  9  1  0
  9 10  2  0
 10 11  1  0
 11 12  2  0
 12 13  1  0
 13 14  1  0
 13 15  2  0
  8 16  1  0
 16 17  1  0
 17 18  2  0
 18 19  1  0
 19 20  2  0
 20 21  1  0
 21 22  1  0
 21 23  2  0
 16 24  2  0
 24 25  1  0
 25 26  2  0
 26  2  1  0
 25  6  1  0
 15  9  1  0
 23 17  1  0
M  END
>  <Molecule ChEMBL ID>  (36) 
CHEMBL230011

>  <Standard Type>  (36) 
Kd

>  <activity>  (36) 
730

>  <Standard Units>  (36) 
nM

>  <activity_sd>  (36) 
NA

>  <p_activity>  (36) 
6.137

$$$$
CHEMBL445813
     RDKit          2D

 25 27  0  0  0  0  0  0  0  0999 V2000
   -0.7500   -3.8971    0.0000 O   0  0  0  0  0  0  0  0  0  0  0  0
    0.7500   -3.8971    0.0000 C   0  0  0  0  0  0  0  0  0  0  0  0
    1.5000   -2.5981    0.0000 N   0  0  0  0  0  0  0  0  0  0  0  0
    0.7500   -1.2990    0.0000 C   0  0  0  0  0  0  0  0  0  0  0  0
    1.5000    0.0000    0.0000 C   0  0  0  0  0  0  0  0  0  0  0  0
    0.7500    1.2990    0.0000 C   0  0  0  0  0  0  0  0  0  0  0  0
   -0.7500    1.2990    0.0000 N   0  0  0  0  0  0  0  0  0  0  0  0
   -1.5000    0.0000    0.0000 C   0  0  0  0  0  0  0  0  0  0  0  0
   -0.7500   -1.2990    0.0000 C   0  0  0  0  0  0  0  0  0  0  0  0
    1.5000   -5.1962    0.0000 C   0  0  0  0  0  0  0  0  0  0  0  0
    2.9918   -5.3529    0.0000 N   0  0  0  0  0  0  0  0  0  0  0  0
    3.3037   -6.8202    0.0000 N   0  0  0  0  0  0  0  0  0  0  0  0
    2.0046   -7.5702    0.0000 C   0  0  0  0  0  0  0  0  0  0  0  0
    0.8899   -6.5665    0.0000 C   0  0  0  0  0  0  0  0  0  0  0  0
   -0.5773   -6.8783    0.0000 N   0  0  0  0  0  0  0  0  0  0  0  0
   -1.0409   -8.3049    0.0000 C   0  0  0  0  0  0  0  0  0  0  0  0
   -0.0372   -9.4196    0.0000 O   0  0  0  0  0  0  0  0  0  0  0  0
   -2.5081   -8.6168    0.0000 C   0  0  0  0  0  0  0  0  0  0  0  0
   -3.5118   -7.5021    0.0000 C   0  0  0  0  0  0  0  0  0  0  0  0
   -3.0482   -6.0755    0.0000 Cl  0  0  0  0  0  0  0  0  0  0  0  0
   -4.9790   -7.8139    0.0000 C   0  0  0  0  0  0  0  0  0  0  0  0
   -5.4425   -9.2405    0.0000 C   0  0  0  0  0  0  0  0  0  0  0  0
   -4.4388  -10.3552    0.0000 C   0  0  0  0  0  0  0  0  0  0  0  0
   -2.9716  -10.0434    0.0000 C   0  0  0  0  0  0  0  0  0  0  0  0
   -1.9679  -11.1581    0.0000 Cl  0  0  0  0  0  0  0  0  0  0  0  0
  1  2  2  0
  2  3  1  0
  3  4  1  0
  4  5  1  0
  5  6  1  0
  6  7  1  0
  7  8  1  0
  8  9  1  0
  2 10  1  0
 10 11  2  0
 11 12  1  0
 12 13  1  0
 13 14  2  0
 14 15  1  0
 15 16  1  0
 16 17  2  0
 16 18  1  0
 18 19  2  0
 19 20  1  0
 19 21  1  0
 21 22  2  0
 22 23  1  0
 23 24  2  0
 24 25  1  0
  9  4  1  0
 14 10  1  0
 24 18  1  0
M  END
>  <Molecule ChEMBL ID>  (37) 
CHEMBL445813

>  <Standard Type>  (37) 
Kd

>  <activity>  (37) 
290

>  <Standard Units>  (37) 
nM

>  <activity_sd>  (37) 
NA

>  <p_activity>  (37) 
6.538

$$$$
CHEMBL1908397
     RDKit          2D

 25 28  0  0  0  0  0  0  0  0999 V2000
   -8.9702   -7.9777    0.0000 O   0  0  0  0  0  0  0  0  0  0  0  0
   -8.6583   -6.5105    0.0000 C   0  0  0  0  0  0  0  0  0  0  0  0
   -7.2317   -6.0469    0.0000 C   0  0  0  0  0  0  0  0  0  0  0  0
   -6.1170   -7.0506    0.0000 C   0  0  0  0  0  0  0  0  0  0  0  0
   -4.6904   -6.5871    0.0000 C   0  0  0  0  0  0  0  0  0  0  0  0
   -4.3786   -5.1199    0.0000 C   0  0  0  0  0  0  0  0  0  0  0  0
   -2.9520   -4.6564    0.0000 C   0  0  0  0  0  0  0  0  0  0  0  0
   -2.6401   -3.1891    0.0000 C   0  0  0  0  0  0  0  0  0  0  0  0
   -1.2135   -2.7256    0.0000 C   0  0  0  0  0  0  0  0  0  0  0  0
   -0.0000   -3.6073    0.0000 N   0  0  0  0  0  0  0  0  0  0  0  0
    1.2135   -2.7256    0.0000 N   0  0  0  0  0  0  0  0  0  0  0  0
    0.7500   -1.2990    0.0000 C   0  0  0  0  0  0  0  0  0  0  0  0
    1.5000    0.0000    0.0000 C   0  0  0  0  0  0  0  0  0  0  0  0
    0.7500    1.2990    0.0000 C   0  0  0  0  0  0  0  0  0  0  0  0
   -0.7500    1.2990    0.0000 C   0  0  0  0  0  0  0  0  0  0  0  0
   -1.5000    0.0000    0.0000 C   0  0  0  0  0  0  0  0  0  0  0  0
   -0.7500   -1.2990    0.0000 C   0  0  0  0  0  0  0  0  0  0  0  0
   -5.4933   -4.1162    0.0000 C   0  0  0  0  0  0  0  0  0  0  0  0
   -6.9199   -4.5797    0.0000 C   0  0  0  0  0  0  0  0  0  0  0  0
   -9.7730   -5.5068    0.0000 N   0  0  0  0  0  0  0  0  0  0  0  0
   -9.4612   -4.0396    0.0000 C   0  0  0  0  0  0  0  0  0  0  0  0
  -10.5759   -3.0359    0.0000 C   0  0  0  0  0  0  0  0  0  0  0  0
  -12.0025   -3.4994    0.0000 N   0  0  0  0  0  0  0  0  0  0  0  0
  -12.3143   -4.9666    0.0000 C   0  0  0  0  0  0  0  0  0  0  0  0
  -11.1996   -5.9703    0.0000 C   0  0  0  0  0  0  0  0  0  0  0  0
  1  2  2  0
  2  3  1  0
  3  4  2  0
  4  5  1  0
  5  6  2  0
  6  7  1  0
  7  8  2  0
  8  9  1  0
  9 10  2  0
 10 11  1  0
 11 12  1  0
 12 13  2  0
 13 14  1  0
 14 15  2  0
 15 16  1  0
 16 17  2  0
  6 18  1  0
 18 19  2  0
  2 20  1  0
 20 21  1  0
 21 22  1  0
 22 23  1  0
 23 24  1  0
 24 25  1  0
 19  3  1  0
 25 20  1  0
 17  9  1  0
 17 12  1  0
M  END
>  <Molecule ChEMBL ID>  (38) 
CHEMBL1908397

>  <Standard Type>  (38) 
Kd

>  <activity>  (38) 
940

>  <Standard Units>  (38) 
nM

>  <activity_sd>  (38) 
NA

>  <p_activity>  (38) 
6.027

$$$$
CHEMBL1802358
     RDKit          2D

 23 26  0  0  0  0  0  0  0  0999 V2000
    0.2444    8.3971    0.0000 O   0  0  0  0  0  0  0  0  0  0  0  0
   -1.0546    7.6471    0.0000 C   0  0  0  0  0  0  0  0  0  0  0  0
   -2.4249    8.2572    0.0000 N   0  0  0  0  0  0  0  0  0  0  0  0
   -3.4286    7.1425    0.0000 C   0  0  0  0  0  0  0  0  0  0  0  0
   -4.9204    7.2993    0.0000 N   0  0  0  0  0  0  0  0  0  0  0  0
   -5.5305    8.6696    0.0000 C   0  0  0  0  0  0  0  0  0  0  0  0
   -4.6488    9.8832    0.0000 C   0  0  0  0  0  0  0  0  0  0  0  0
   -5.2589   11.2535    0.0000 C   0  0  0  0  0  0  0  0  0  0  0  0
   -6.7507   11.4103    0.0000 C   0  0  0  0  0  0  0  0  0  0  0  0
   -7.6324   10.1968    0.0000 C   0  0  0  0  0  0  0  0  0  0  0  0
   -7.0223    8.8264    0.0000 C   0  0  0  0  0  0  0  0  0  0  0  0
   -2.6786    5.8435    0.0000 N   0  0  0  0  0  0  0  0  0  0  0  0
   -1.2114    6.1554    0.0000 C   0  0  0  0  0  0  0  0  0  0  0  0
   -0.0967    5.1517    0.0000 C   0  0  0  0  0  0  0  0  0  0  0  0
   -0.4086    3.6844    0.0000 C   0  0  0  0  0  0  0  0  0  0  0  0
   -1.8351    3.2209    0.0000 C   0  0  0  0  0  0  0  0  0  0  0  0
   -2.1470    1.7537    0.0000 C   0  0  0  0  0  0  0  0  0  0  0  0
   -1.0323    0.7500    0.0000 C   0  0  0  0  0  0  0  0  0  0  0  0
    0.3943    1.2135    0.0000 C   0  0  0  0  0  0  0  0  0  0  0  0
    0.7062    2.6807    0.0000 C   0  0  0  0  0  0  0  0  0  0  0  0
    1.2760    0.0000    0.0000 O   0  0  0  0  0  0  0  0  0  0  0  0
    0.3943   -1.2135    0.0000 C   0  0  0  0  0  0  0  0  0  0  0  0
   -1.0323   -0.7500    0.0000 O   0  0  0  0  0  0  0  0  0  0  0  0
  1  2  2  0
  2  3  1  0
  3  4  1  0
  4  5  1  0
  5  6  1  0
  6  7  2  0
  7  8  1  0
  8  9  2  0
  9 10  1  0
 10 11  2  0
  4 12  2  0
 12 13  1  0
 13 14  2  0
 14 15  1  0
 15 16  2  0
 16 17  1  0
 17 18  2  0
 18 19  1  0
 19 20  2  0
 19 21  1  0
 21 22  1  0
 22 23  1  0
 13  2  1  0
 20 15  1  0
 11  6  1  0
 23 18  1  0
M  END
>  <Molecule ChEMBL ID>  (39) 
CHEMBL1802358

>  <Standard Type>  (39) 
Kd

>  <activity>  (39) 
140

>  <Standard Units>  (39) 
nM

>  <activity_sd>  (39) 
NA

>  <p_activity>  (39) 
6.854

$$$$
CHEMBL573339
     RDKit          2D

 26 30  0  0  0  0  0  0  0  0999 V2000
   -5.7949   -9.0313    0.0000 O   0  0  0  0  0  0  0  0  0  0  0  0
   -5.6381   -7.5395    0.0000 C   0  0  0  0  0  0  0  0  0  0  0  0
   -6.8516   -6.6578    0.0000 C   0  0  0  0  0  0  0  0  0  0  0  0
   -6.6948   -5.1660    0.0000 C   0  0  0  0  0  0  0  0  0  0  0  0
   -5.3245   -4.5559    0.0000 C   0  0  0  0  0  0  0  0  0  0  0  0
   -4.1110   -5.4376    0.0000 C   0  0  0  0  0  0  0  0  0  0  0  0
   -2.7406   -4.8275    0.0000 C   0  0  0  0  0  0  0  0  0  0  0  0
   -1.5271   -5.7092    0.0000 N   0  0  0  0  0  0  0  0  0  0  0  0
   -0.1568   -5.0991    0.0000 C   0  0  0  0  0  0  0  0  0  0  0  0
    1.0567   -5.9808    0.0000 N   0  0  0  0  0  0  0  0  0  0  0  0
    0.8999   -7.4725    0.0000 C   0  0  0  0  0  0  0  0  0  0  0  0
    2.1135   -8.3542    0.0000 C   0  0  0  0  0  0  0  0  0  0  0  0
    3.4838   -7.7441    0.0000 O   0  0  0  0  0  0  0  0  0  0  0  0
    3.6406   -6.2523    0.0000 C   0  0  0  0  0  0  0  0  0  0  0  0
    2.4271   -5.3707    0.0000 C   0  0  0  0  0  0  0  0  0  0  0  0
    0.0000   -3.6073    0.0000 C   0  0  0  0  0  0  0  0  0  0  0  0
    1.2135   -2.7256    0.0000 O   0  0  0  0  0  0  0  0  0  0  0  0
    0.7500   -1.2990    0.0000 C   0  0  0  0  0  0  0  0  0  0  0  0
    1.5000    0.0000    0.0000 N   0  0  0  0  0  0  0  0  0  0  0  0
    0.7500    1.2990    0.0000 C   0  0  0  0  0  0  0  0  0  0  0  0
   -0.7500    1.2990    0.0000 C   0  0  0  0  0  0  0  0  0  0  0  0
   -1.5000    0.0000    0.0000 C   0  0  0  0  0  0  0  0  0  0  0  0
   -0.7500   -1.2990    0.0000 C   0  0  0  0  0  0  0  0  0  0  0  0
   -1.2135   -2.7256    0.0000 C   0  0  0  0  0  0  0  0  0  0  0  0
   -2.5838   -3.3357    0.0000 N   0  0  0  0  0  0  0  0  0  0  0  0
   -4.2677   -6.9294    0.0000 C   0  0  0  0  0  0  0  0  0  0  0  0
  1  2  1  0
  2  3  2  0
  3  4  1  0
  4  5  2  0
  5  6  1  0
  6  7  1  0
  7  8  2  0
  8  9  1  0
  9 10  1  0
 10 11  1  0
 11 12  1  0
 12 13  1  0
 13 14  1  0
 14 15  1  0
  9 16  2  0
 16 17  1  0
 17 18  1  0
 18 19  2  0
 19 20  1  0
 20 21  2  0
 21 22  1  0
 22 23  2  0
 23 24  1  0
 24 25  2  0
  6 26  2  0
 26  2  1  0
 25  7  1  0
 15 10  1  0
 24 16  1  0
 23 18  1  0
M  END
>  <Molecule ChEMBL ID>  (40) 
CHEMBL573339

>  <Standard Type>  (40) 
Kd

>  <activity>  (40) 
5700

>  <Standard Units>  (40) 
nM

>  <activity_sd>  (40) 
NA

>  <p_activity>  (40) 
5.244

$$$$
CHEMBL567331
     RDKit          2D

 26 30  0  0  0  0  0  0  0  0999 V2000
    4.2546   -6.2711    0.0000 C   0  0  0  0  0  0  0  0  0  0  0  0
    5.5537   -5.5211    0.0000 C   0  0  0  0  0  0  0  0  0  0  0  0
    5.2418   -4.0539    0.0000 S   0  0  0  0  0  0  0  0  0  0  0  0
    3.7500   -3.8971    0.0000 C   0  0  0  0  0  0  0  0  0  0  0  0
    3.0000   -2.5981    0.0000 C   0  0  0  0  0  0  0  0  0  0  0  0
    1.5000   -2.5981    0.0000 N   0  0  0  0  0  0  0  0  0  0  0  0
    0.7500   -1.2990    0.0000 C   0  0  0  0  0  0  0  0  0  0  0  0
    1.5000    0.0000    0.0000 N   0  0  0  0  0  0  0  0  0  0  0  0
    0.7500    1.2990    0.0000 C   0  0  0  0  0  0  0  0  0  0  0  0
   -0.7500    1.2990    0.0000 N   0  0  0  0  0  0  0  0  0  0  0  0
   -1.5000    0.0000    0.0000 C   0  0  0  0  0  0  0  0  0  0  0  0
   -3.0000    0.0000    0.0000 C   0  0  0  0  0  0  0  0  0  0  0  0
   -3.7500   -1.2990    0.0000 C   0  0  0  0  0  0  0  0  0  0  0  0
   -3.0000   -2.5981    0.0000 C   0  0  0  0  0  0  0  0  0  0  0  0
   -3.7500   -3.8971    0.0000 C   0  0  0  0  0  0  0  0  0  0  0  0
   -3.0000   -5.1962    0.0000 C   0  0  0  0  0  0  0  0  0  0  0  0
   -3.7500   -6.4952    0.0000 C   0  0  0  0  0  0  0  0  0  0  0  0
   -5.2500   -6.4952    0.0000 C   0  0  0  0  0  0  0  0  0  0  0  0
   -6.0000   -5.1962    0.0000 C   0  0  0  0  0  0  0  0  0  0  0  0
   -5.2500   -3.8971    0.0000 C   0  0  0  0  0  0  0  0  0  0  0  0
   -7.4672   -5.5080    0.0000 O   0  0  0  0  0  0  0  0  0  0  0  0
   -7.6240   -6.9998    0.0000 C   0  0  0  0  0  0  0  0  0  0  0  0
   -6.2537   -7.6099    0.0000 O   0  0  0  0  0  0  0  0  0  0  0  0
   -1.5000   -2.5981    0.0000 C   0  0  0  0  0  0  0  0  0  0  0  0
   -0.7500   -1.2990    0.0000 C   0  0  0  0  0  0  0  0  0  0  0  0
    3.1399   -5.2674    0.0000 C   0  0  0  0  0  0  0  0  0  0  0  0
  1  2  2  0
  2  3  1  0
  3  4  1  0
  4  5  1  0
  5  6  1  0
  6  7  1  0
  7  8  2  0
  8  9  1  0
  9 10  2  0
 10 11  1  0
 11 12  2  0
 12 13  1  0
 13 14  2  0
 14 15  1  0
 15 16  2  0
 16 17  1  0
 17 18  2  0
 18 19  1  0
 19 20  2  0
 19 21  1  0
 21 22  1  0
 22 23  1  0
 14 24  1  0
 24 25  2  0
  4 26  2  0
 26  1  1  0
 25  7  1  0
 25 11  1  0
 20 15  1  0
 23 18  1  0
M  END
>  <Molecule ChEMBL ID>  (41) 
CHEMBL567331

>  <Standard Type>  (41) 
Kd

>  <activity>  (41) 
430

>  <Standard Units>  (41) 
nM

>  <activity_sd>  (41) 
NA

>  <p_activity>  (41) 
6.367

$$$$
